version 2
run nodebug-0-20170302-15:38:16-1457
attr configname nodebug
attr datetime 20170302-15:38:16
attr experiment nodebug
attr inifile omnetpp.ini
attr iterationvars ""
attr iterationvars2 $repetition=0
attr measurement ""
attr network RSUExampleScenario
attr processid 1457
attr repetition 0
attr replication #0
attr resultdir results
attr runnumber 0
attr seedset 0
param **.coreDebug false
param **.debug false
param *.**.nic.mac1609_4.bitrate 18Mbps
param *.**.nic.mac1609_4.txPower 50mW
param *.**.nic.mac1609_4.useServiceChannel true
param *.**.nic.phy80211p.analogueModels "xmldoc(\"config.xml\")"
param *.**.nic.phy80211p.decider "xmldoc(\"config.xml\")"
param *.**.nic.phy80211p.sensitivity -89dBm
param *.**.nic.phy80211p.thermalNoise -110dBm
param *.**.nic.phy80211p.usePropagationDelay true
param *.**.nic.phy80211p.useThermalNoise true
param *.annotations.draw false
param *.connectionManager.alpha 2.0
param *.connectionManager.carrierFrequency "5.890e9 Hz"
param *.connectionManager.pMax 50mW
param *.connectionManager.sat -89dBm
param *.connectionManager.sendDirect true
param *.manager.autoShutdown true
param *.manager.host "\"localhost\""
param *.manager.launchConfig "xmldoc(\"doublecross.launchd.xml\")"
param *.manager.margin 25
param *.manager.moduleDisplayString "\"\""
param *.manager.moduleName "\"node\""
param *.manager.moduleType "\"org.car2x.veins.nodes.Car\""
param *.manager.port 9999
param *.manager.updateInterval 0.1s
param *.node[*0].veinsmobility.accidentCount 0
param *.node[*0].veinsmobility.accidentDuration 30s
param *.node[*0].veinsmobility.accidentStart 75s
param *.node[*].appl.beaconInterval 1s
param *.node[*].appl.beaconPriority 3
param *.node[*].appl.dataOnSch true
param *.node[*].appl.dataPriority 1
param *.node[*].appl.debug false
param *.node[*].appl.headerLength "256 bit"
param *.node[*].appl.maxOffset 0.005s
param *.node[*].appl.sendBeacons true
param *.node[*].appl.sendData true
param *.node[*].applType "\"TraCIDemo11p\""
param *.node[*].mobilityType "\"TraCIMobility\""
param *.node[*].mobilityType.debug true
param *.node[*].veinsmobility.x 0
param *.node[*].veinsmobility.y 0
param *.node[*].veinsmobility.z 1.895
param *.node[*].veinsmobilityType "\"org.car2x.veins.modules.mobility.traci.TraCIMobility\""
param *.node[*].veinsmobilityType.debug true
param *.obstacles.debug false
param *.obstacles.obstacles "xmldoc(\"config.xml\", \"//AnalogueModel[@type='SimpleObstacleShadowing']/obstacles\")"
param *.playgroundSizeX 2500m
param *.playgroundSizeY 2500m
param *.playgroundSizeZ 50m
param *.rsu[*].appl.beaconInterval 1s
param *.rsu[*].appl.beaconPriority 3
param *.rsu[*].appl.dataOnSch true
param *.rsu[*].appl.dataPriority 2
param *.rsu[*].appl.debug false
param *.rsu[*].appl.headerLength "256 bit"
param *.rsu[*].appl.maxOffset 0.005s
param *.rsu[*].appl.sendBeacons false
param *.rsu[*].appl.sendData true
param *.rsu[*].applType "\"TraCIDemoRSU11p\""
param *.rsu[0].mobility.x 895.68
param *.rsu[0].mobility.y 403.96
param *.rsu[0].mobility.z 3
param *.rsu[1].mobility.x 395.49
param *.rsu[1].mobility.y 395.49
param *.rsu[1].mobility.z 3
param *.world.use2D false
param *.world.useTorus false

vector 2  RSUExampleScenario.node[0].veinsmobility  posx  ETV
vector 3  RSUExampleScenario.node[0].veinsmobility  posy  ETV
vector 9  RSUExampleScenario.node[1].veinsmobility  posx  ETV
vector 10  RSUExampleScenario.node[1].veinsmobility  posy  ETV
vector 16  RSUExampleScenario.node[2].veinsmobility  posx  ETV
vector 17  RSUExampleScenario.node[2].veinsmobility  posy  ETV
vector 23  RSUExampleScenario.node[3].veinsmobility  posx  ETV
vector 24  RSUExampleScenario.node[3].veinsmobility  posy  ETV
vector 30  RSUExampleScenario.node[4].veinsmobility  posx  ETV
vector 31  RSUExampleScenario.node[4].veinsmobility  posy  ETV
vector 37  RSUExampleScenario.node[5].veinsmobility  posx  ETV
vector 38  RSUExampleScenario.node[5].veinsmobility  posy  ETV
vector 4  RSUExampleScenario.node[0].veinsmobility  speed  ETV
vector 11  RSUExampleScenario.node[1].veinsmobility  speed  ETV
vector 18  RSUExampleScenario.node[2].veinsmobility  speed  ETV
vector 25  RSUExampleScenario.node[3].veinsmobility  speed  ETV
vector 32  RSUExampleScenario.node[4].veinsmobility  speed  ETV
vector 39  RSUExampleScenario.node[5].veinsmobility  speed  ETV
vector 5  RSUExampleScenario.node[0].veinsmobility  acceleration  ETV
vector 6  RSUExampleScenario.node[0].veinsmobility  co2emission  ETV
vector 12  RSUExampleScenario.node[1].veinsmobility  acceleration  ETV
vector 13  RSUExampleScenario.node[1].veinsmobility  co2emission  ETV
vector 19  RSUExampleScenario.node[2].veinsmobility  acceleration  ETV
vector 20  RSUExampleScenario.node[2].veinsmobility  co2emission  ETV
vector 26  RSUExampleScenario.node[3].veinsmobility  acceleration  ETV
vector 27  RSUExampleScenario.node[3].veinsmobility  co2emission  ETV
vector 33  RSUExampleScenario.node[4].veinsmobility  acceleration  ETV
vector 34  RSUExampleScenario.node[4].veinsmobility  co2emission  ETV
vector 40  RSUExampleScenario.node[5].veinsmobility  acceleration  ETV
vector 41  RSUExampleScenario.node[5].veinsmobility  co2emission  ETV
vector 44  RSUExampleScenario.node[6].veinsmobility  posx  ETV
vector 45  RSUExampleScenario.node[6].veinsmobility  posy  ETV
vector 51  RSUExampleScenario.node[7].veinsmobility  posx  ETV
vector 52  RSUExampleScenario.node[7].veinsmobility  posy  ETV
vector 58  RSUExampleScenario.node[8].veinsmobility  posx  ETV
vector 59  RSUExampleScenario.node[8].veinsmobility  posy  ETV
vector 65  RSUExampleScenario.node[9].veinsmobility  posx  ETV
vector 66  RSUExampleScenario.node[9].veinsmobility  posy  ETV
vector 72  RSUExampleScenario.node[10].veinsmobility  posx  ETV
vector 73  RSUExampleScenario.node[10].veinsmobility  posy  ETV
vector 79  RSUExampleScenario.node[11].veinsmobility  posx  ETV
vector 80  RSUExampleScenario.node[11].veinsmobility  posy  ETV
vector 46  RSUExampleScenario.node[6].veinsmobility  speed  ETV
vector 53  RSUExampleScenario.node[7].veinsmobility  speed  ETV
vector 60  RSUExampleScenario.node[8].veinsmobility  speed  ETV
vector 67  RSUExampleScenario.node[9].veinsmobility  speed  ETV
vector 74  RSUExampleScenario.node[10].veinsmobility  speed  ETV
vector 81  RSUExampleScenario.node[11].veinsmobility  speed  ETV
vector 47  RSUExampleScenario.node[6].veinsmobility  acceleration  ETV
vector 48  RSUExampleScenario.node[6].veinsmobility  co2emission  ETV
vector 54  RSUExampleScenario.node[7].veinsmobility  acceleration  ETV
vector 55  RSUExampleScenario.node[7].veinsmobility  co2emission  ETV
vector 61  RSUExampleScenario.node[8].veinsmobility  acceleration  ETV
vector 62  RSUExampleScenario.node[8].veinsmobility  co2emission  ETV
vector 68  RSUExampleScenario.node[9].veinsmobility  acceleration  ETV
vector 69  RSUExampleScenario.node[9].veinsmobility  co2emission  ETV
vector 75  RSUExampleScenario.node[10].veinsmobility  acceleration  ETV
vector 76  RSUExampleScenario.node[10].veinsmobility  co2emission  ETV
vector 82  RSUExampleScenario.node[11].veinsmobility  acceleration  ETV
vector 83  RSUExampleScenario.node[11].veinsmobility  co2emission  ETV
vector 86  RSUExampleScenario.node[12].veinsmobility  posx  ETV
vector 87  RSUExampleScenario.node[12].veinsmobility  posy  ETV
vector 93  RSUExampleScenario.node[13].veinsmobility  posx  ETV
vector 94  RSUExampleScenario.node[13].veinsmobility  posy  ETV
vector 100  RSUExampleScenario.node[14].veinsmobility  posx  ETV
vector 101  RSUExampleScenario.node[14].veinsmobility  posy  ETV
vector 107  RSUExampleScenario.node[15].veinsmobility  posx  ETV
vector 108  RSUExampleScenario.node[15].veinsmobility  posy  ETV
vector 114  RSUExampleScenario.node[16].veinsmobility  posx  ETV
vector 115  RSUExampleScenario.node[16].veinsmobility  posy  ETV
vector 121  RSUExampleScenario.node[17].veinsmobility  posx  ETV
vector 122  RSUExampleScenario.node[17].veinsmobility  posy  ETV
vector 88  RSUExampleScenario.node[12].veinsmobility  speed  ETV
vector 95  RSUExampleScenario.node[13].veinsmobility  speed  ETV
vector 102  RSUExampleScenario.node[14].veinsmobility  speed  ETV
vector 109  RSUExampleScenario.node[15].veinsmobility  speed  ETV
vector 116  RSUExampleScenario.node[16].veinsmobility  speed  ETV
vector 123  RSUExampleScenario.node[17].veinsmobility  speed  ETV
vector 89  RSUExampleScenario.node[12].veinsmobility  acceleration  ETV
vector 90  RSUExampleScenario.node[12].veinsmobility  co2emission  ETV
vector 96  RSUExampleScenario.node[13].veinsmobility  acceleration  ETV
vector 97  RSUExampleScenario.node[13].veinsmobility  co2emission  ETV
vector 103  RSUExampleScenario.node[14].veinsmobility  acceleration  ETV
vector 104  RSUExampleScenario.node[14].veinsmobility  co2emission  ETV
vector 110  RSUExampleScenario.node[15].veinsmobility  acceleration  ETV
vector 111  RSUExampleScenario.node[15].veinsmobility  co2emission  ETV
vector 117  RSUExampleScenario.node[16].veinsmobility  acceleration  ETV
vector 118  RSUExampleScenario.node[16].veinsmobility  co2emission  ETV
vector 124  RSUExampleScenario.node[17].veinsmobility  acceleration  ETV
vector 125  RSUExampleScenario.node[17].veinsmobility  co2emission  ETV
vector 128  RSUExampleScenario.node[18].veinsmobility  posx  ETV
vector 129  RSUExampleScenario.node[18].veinsmobility  posy  ETV
vector 135  RSUExampleScenario.node[19].veinsmobility  posx  ETV
vector 136  RSUExampleScenario.node[19].veinsmobility  posy  ETV
vector 142  RSUExampleScenario.node[20].veinsmobility  posx  ETV
vector 143  RSUExampleScenario.node[20].veinsmobility  posy  ETV
vector 149  RSUExampleScenario.node[21].veinsmobility  posx  ETV
vector 150  RSUExampleScenario.node[21].veinsmobility  posy  ETV
vector 156  RSUExampleScenario.node[22].veinsmobility  posx  ETV
vector 157  RSUExampleScenario.node[22].veinsmobility  posy  ETV
vector 163  RSUExampleScenario.node[23].veinsmobility  posx  ETV
vector 164  RSUExampleScenario.node[23].veinsmobility  posy  ETV
vector 130  RSUExampleScenario.node[18].veinsmobility  speed  ETV
vector 137  RSUExampleScenario.node[19].veinsmobility  speed  ETV
vector 144  RSUExampleScenario.node[20].veinsmobility  speed  ETV
vector 151  RSUExampleScenario.node[21].veinsmobility  speed  ETV
vector 158  RSUExampleScenario.node[22].veinsmobility  speed  ETV
vector 165  RSUExampleScenario.node[23].veinsmobility  speed  ETV
vector 131  RSUExampleScenario.node[18].veinsmobility  acceleration  ETV
vector 132  RSUExampleScenario.node[18].veinsmobility  co2emission  ETV
vector 138  RSUExampleScenario.node[19].veinsmobility  acceleration  ETV
vector 139  RSUExampleScenario.node[19].veinsmobility  co2emission  ETV
vector 145  RSUExampleScenario.node[20].veinsmobility  acceleration  ETV
vector 146  RSUExampleScenario.node[20].veinsmobility  co2emission  ETV
vector 152  RSUExampleScenario.node[21].veinsmobility  acceleration  ETV
vector 153  RSUExampleScenario.node[21].veinsmobility  co2emission  ETV
vector 159  RSUExampleScenario.node[22].veinsmobility  acceleration  ETV
vector 160  RSUExampleScenario.node[22].veinsmobility  co2emission  ETV
vector 166  RSUExampleScenario.node[23].veinsmobility  acceleration  ETV
vector 167  RSUExampleScenario.node[23].veinsmobility  co2emission  ETV
vector 170  RSUExampleScenario.node[24].veinsmobility  posx  ETV
vector 171  RSUExampleScenario.node[24].veinsmobility  posy  ETV
vector 177  RSUExampleScenario.node[25].veinsmobility  posx  ETV
vector 178  RSUExampleScenario.node[25].veinsmobility  posy  ETV
vector 184  RSUExampleScenario.node[26].veinsmobility  posx  ETV
vector 185  RSUExampleScenario.node[26].veinsmobility  posy  ETV
vector 191  RSUExampleScenario.node[27].veinsmobility  posx  ETV
vector 192  RSUExampleScenario.node[27].veinsmobility  posy  ETV
vector 198  RSUExampleScenario.node[28].veinsmobility  posx  ETV
vector 199  RSUExampleScenario.node[28].veinsmobility  posy  ETV
vector 205  RSUExampleScenario.node[29].veinsmobility  posx  ETV
vector 206  RSUExampleScenario.node[29].veinsmobility  posy  ETV
vector 172  RSUExampleScenario.node[24].veinsmobility  speed  ETV
vector 179  RSUExampleScenario.node[25].veinsmobility  speed  ETV
vector 186  RSUExampleScenario.node[26].veinsmobility  speed  ETV
vector 193  RSUExampleScenario.node[27].veinsmobility  speed  ETV
vector 200  RSUExampleScenario.node[28].veinsmobility  speed  ETV
vector 207  RSUExampleScenario.node[29].veinsmobility  speed  ETV
vector 173  RSUExampleScenario.node[24].veinsmobility  acceleration  ETV
vector 174  RSUExampleScenario.node[24].veinsmobility  co2emission  ETV
vector 180  RSUExampleScenario.node[25].veinsmobility  acceleration  ETV
vector 181  RSUExampleScenario.node[25].veinsmobility  co2emission  ETV
vector 187  RSUExampleScenario.node[26].veinsmobility  acceleration  ETV
vector 188  RSUExampleScenario.node[26].veinsmobility  co2emission  ETV
vector 194  RSUExampleScenario.node[27].veinsmobility  acceleration  ETV
vector 195  RSUExampleScenario.node[27].veinsmobility  co2emission  ETV
vector 201  RSUExampleScenario.node[28].veinsmobility  acceleration  ETV
vector 202  RSUExampleScenario.node[28].veinsmobility  co2emission  ETV
vector 208  RSUExampleScenario.node[29].veinsmobility  acceleration  ETV
vector 209  RSUExampleScenario.node[29].veinsmobility  co2emission  ETV
vector 212  RSUExampleScenario.node[30].veinsmobility  posx  ETV
vector 213  RSUExampleScenario.node[30].veinsmobility  posy  ETV
vector 219  RSUExampleScenario.node[31].veinsmobility  posx  ETV
vector 220  RSUExampleScenario.node[31].veinsmobility  posy  ETV
vector 226  RSUExampleScenario.node[32].veinsmobility  posx  ETV
vector 227  RSUExampleScenario.node[32].veinsmobility  posy  ETV
vector 233  RSUExampleScenario.node[33].veinsmobility  posx  ETV
vector 234  RSUExampleScenario.node[33].veinsmobility  posy  ETV
vector 240  RSUExampleScenario.node[34].veinsmobility  posx  ETV
vector 241  RSUExampleScenario.node[34].veinsmobility  posy  ETV
vector 247  RSUExampleScenario.node[35].veinsmobility  posx  ETV
vector 248  RSUExampleScenario.node[35].veinsmobility  posy  ETV
vector 214  RSUExampleScenario.node[30].veinsmobility  speed  ETV
vector 221  RSUExampleScenario.node[31].veinsmobility  speed  ETV
vector 228  RSUExampleScenario.node[32].veinsmobility  speed  ETV
vector 235  RSUExampleScenario.node[33].veinsmobility  speed  ETV
vector 242  RSUExampleScenario.node[34].veinsmobility  speed  ETV
vector 249  RSUExampleScenario.node[35].veinsmobility  speed  ETV
vector 215  RSUExampleScenario.node[30].veinsmobility  acceleration  ETV
vector 216  RSUExampleScenario.node[30].veinsmobility  co2emission  ETV
vector 222  RSUExampleScenario.node[31].veinsmobility  acceleration  ETV
vector 223  RSUExampleScenario.node[31].veinsmobility  co2emission  ETV
vector 229  RSUExampleScenario.node[32].veinsmobility  acceleration  ETV
vector 230  RSUExampleScenario.node[32].veinsmobility  co2emission  ETV
vector 236  RSUExampleScenario.node[33].veinsmobility  acceleration  ETV
vector 237  RSUExampleScenario.node[33].veinsmobility  co2emission  ETV
vector 243  RSUExampleScenario.node[34].veinsmobility  acceleration  ETV
vector 244  RSUExampleScenario.node[34].veinsmobility  co2emission  ETV
vector 250  RSUExampleScenario.node[35].veinsmobility  acceleration  ETV
vector 251  RSUExampleScenario.node[35].veinsmobility  co2emission  ETV
vector 254  RSUExampleScenario.node[36].veinsmobility  posx  ETV
vector 255  RSUExampleScenario.node[36].veinsmobility  posy  ETV
vector 261  RSUExampleScenario.node[37].veinsmobility  posx  ETV
vector 262  RSUExampleScenario.node[37].veinsmobility  posy  ETV
vector 268  RSUExampleScenario.node[38].veinsmobility  posx  ETV
vector 269  RSUExampleScenario.node[38].veinsmobility  posy  ETV
vector 275  RSUExampleScenario.node[39].veinsmobility  posx  ETV
vector 276  RSUExampleScenario.node[39].veinsmobility  posy  ETV
vector 282  RSUExampleScenario.node[40].veinsmobility  posx  ETV
vector 283  RSUExampleScenario.node[40].veinsmobility  posy  ETV
vector 289  RSUExampleScenario.node[41].veinsmobility  posx  ETV
vector 290  RSUExampleScenario.node[41].veinsmobility  posy  ETV
vector 256  RSUExampleScenario.node[36].veinsmobility  speed  ETV
vector 263  RSUExampleScenario.node[37].veinsmobility  speed  ETV
vector 270  RSUExampleScenario.node[38].veinsmobility  speed  ETV
vector 277  RSUExampleScenario.node[39].veinsmobility  speed  ETV
vector 284  RSUExampleScenario.node[40].veinsmobility  speed  ETV
vector 291  RSUExampleScenario.node[41].veinsmobility  speed  ETV
vector 257  RSUExampleScenario.node[36].veinsmobility  acceleration  ETV
vector 258  RSUExampleScenario.node[36].veinsmobility  co2emission  ETV
vector 264  RSUExampleScenario.node[37].veinsmobility  acceleration  ETV
vector 265  RSUExampleScenario.node[37].veinsmobility  co2emission  ETV
vector 271  RSUExampleScenario.node[38].veinsmobility  acceleration  ETV
vector 272  RSUExampleScenario.node[38].veinsmobility  co2emission  ETV
vector 278  RSUExampleScenario.node[39].veinsmobility  acceleration  ETV
vector 279  RSUExampleScenario.node[39].veinsmobility  co2emission  ETV
vector 285  RSUExampleScenario.node[40].veinsmobility  acceleration  ETV
vector 286  RSUExampleScenario.node[40].veinsmobility  co2emission  ETV
vector 292  RSUExampleScenario.node[41].veinsmobility  acceleration  ETV
vector 293  RSUExampleScenario.node[41].veinsmobility  co2emission  ETV
6	41	0.3	1.167848739031
6	54	0.4	1.1967744942298
6	67	0.5	1.2257019122483
6	99	0.6	1.25463154736
6	144	0.7	1.2835639538381
6	157	0.8	1.3124996859558
6	170	0.9	1.3414392979866
6	183	1	1.3703833442035
6	228	1.1	1.39933237888
6	260	1.2	1.4282869562893
6	273	1.3	1.4572476307046
6	286	1.4	1.4862149563994
6	299	1.5	1.5151894876467
6	331	1.6	1.54417177872
6	376	1.7	1.5731623838925
6	389	1.8	1.6021618574374
6	402	1.9	1.6311707536282
6	415	2	1.6601896267379
6	460	2.1	1.68921903104
6	492	2.2	1.7182595208077
6	505	2.3	1.7473116503142
6	518	2.4	1.776375973833
6	531	2.5	1.8054530456371
6	563	2.6	1.83454342
6	608	2.7	1.8636476511949
6	621	2.8	1.892766293495
6	634	2.9	1.9218999011738
6	647	3	1.9510490285043
6	692	3.1	1.98021422976
6	724	3.2	2.0093960592141
6	737	3.3	2.0385950711398
6	750	3.4	2.0678118198106
6	763	3.5	2.0970468594995
6	795	3.6	2.12630074448
6	840	3.7	2.1555740290253
6	853	3.8	2.1848672674086
6	866	3.9	2.2141810139034
6	879	4	2.2435158227827
6	924	4.1	2.27287224832
6	956	4.2	2.3022508447885
6	969	4.3	2.3316521664614
6	982	4.4	2.3610767676122
6	995	4.5	2.3905252025139
6	1027	4.6	2.41999802544
6	1072	4.7	2.4494957906637
6	1085	4.8	2.4790190524582
6	1098	4.9	2.508568365097
6	1111	5	2.5381442828531
6	1156	5.1	2.56774736
6	1188	5.2	2.5973781508109
6	1201	5.3	2.627037209559
6	1214	5.4	2.6567250905178
6	1227	5.5	2.6864423479603
6	1259	5.6	2.71618953616
6	1304	5.7	2.7459672093901
6	1317	5.8	2.7757759219238
6	1330	5.9	2.8056162280346
6	1343	6	2.8354886819955
6	1388	6.1	2.86539383808
6	1420	6.2	2.8953322505613
6	1433	6.3	2.9253044737126
6	1446	6.4	2.9553110618074
6	1459	6.5	2.9853525691187
6	1491	6.6	3.01542954992
6	1536	6.7	3.0455425584845
6	1549	6.8	3.0756921490854
6	1562	6.9	3.1058788759962
6	1575	7	3.1361032934899
6	1620	7.1	3.16636595584
6	1652	7.2	3.1966674173197
6	1665	7.3	3.2270082322022
6	1678	7.4	3.257388954761
6	1691	7.5	3.2878101392691
6	1723	7.6	3.31827234
6	1768	7.7	3.3487761112269
6	1781	7.8	3.379322007223
6	1794	7.9	3.4099105822617
6	1807	8	3.4405423906163
6	1852	8.1	3.47121798656
6	1906	8.2	3.5019379243661
6	2001	8.3	3.5327027583078
6	2026	8.4	3.5635130426585
6	2076	8.5	3.5943693316915
6	2169	8.6	3.62527217968
6	2310	8.7	3.6562221408973
6	2335	8.8	3.6872197696166
6	2360	8.9	3.7182656201113
6	2385	9	3.7493602466547
6	2468	9.1	3.78050420352
6	2528	9.2	3.8116980449805
6	2623	9.3	3.8429423253094
6	2648	9.4	3.8742375987801
6	2698	9.5	3.9055844196659
6	2791	9.6	3.93698334224
6	2932	9.7	3.9684349207757
6	2957	9.8	3.9999397095462
6	2982	9.9	4.0314982628249
6	3007	10	4.0631111348851
6	3090	10.1	4.09477888
6	3150	10.2	4.1265020524429
6	3245	10.3	4.158281206487
6	3270	10.4	4.1901168964057
6	3320	10.5	4.2220096764723
6	3413	10.6	4.25396010096
6	3554	10.7	4.2859687241421
6	3579	10.8	4.3180361002918
6	3604	10.9	4.3501627836825
6	3629	11	4.3823493285875
6	3712	11.1	4.41459628928
6	3772	11.2	4.4469042200333
6	3867	11.3	4.4792736751206
6	3892	11.4	4.5117052088153
6	3942	11.5	4.5441993753907
6	4035	11.6	4.57675672912
6	4176	11.7	4.6093778242765
6	4201	11.8	4.6420632151334
6	4226	11.9	4.6748134559641
6	4251	12	4.7076291010419
6	4334	12.1	4.74051070464
6	4394	12.2	4.7734588210317
6	4489	12.3	4.8064740044902
6	4514	12.4	4.8395568092889
6	4564	12.5	4.8727077897011
6	4659	12.6	4.9059275
6	4800	12.7	4.9392164944589
6	4825	12.8	4.972575327351
6	4850	12.9	5.0060045529497
6	4875	13	5.0395047255283
6	4960	13.1	5.07307639936
6	5022	13.2	5.1067201287181
6	5117	13.3	5.1404364678758
6	5142	13.4	5.1742259711065
6	5192	13.5	5.2080891926835
6	5287	13.6	5.24202668688
6	5430	13.7	5.2760390079693
6	5455	13.8	5.3101267102246
6	5480	13.9	5.3442903479193
6	5505	14	5.3785304753267
6	5590	14.1	2.0286304753279
6	5652	14.2	2.0286304753267
6	5747	14.3	2.0286304753267
6	5772	14.4	2.0286304753267
6	5822	14.5	2.0286304753267
6	5917	14.6	2.0286304753267
6	6060	14.7	2.0286304753267
6	6085	14.8	2.0286304753267
6	6110	14.9	2.0286304753267
6	6135	15	2.0286304753267
6	6220	15.1	2.0286304753267
6	6282	15.2	2.0286304753267
6	6377	15.3	2.0286304753267
6	6402	15.4	2.0286304753267
6	6452	15.5	2.0286304753267
6	6547	15.6	2.0286304753267
6	6690	15.7	2.0286304753267
6	6715	15.8	2.0286304753267
6	6740	15.9	2.0286304753267
6	6765	16	2.0286304753267
6	6852	16.1	2.0286304753267
6	6940	16.2	2.0286304753267
6	7165	16.3	2.0286304753267
6	7202	16.4	2.0286304753267
6	7274	16.5	2.0286304753267
6	7470	16.6	2.0286304753267
6	7687	16.7	2.0286304753267
6	7724	16.8	2.0286304753267
6	7761	16.9	2.0286304753267
6	7900	17	2.0286304753267
6	8064	17.1	2.0286304753267
6	8160	17.2	2.0286304753267
6	8385	17.3	2.0286304753267
6	8422	17.4	2.0286304753267
6	8494	17.5	2.0286304753267
6	8690	17.6	2.0286304753267
6	8907	17.7	2.0286304753267
6	8944	17.8	2.0286304753267
6	8981	17.9	2.0286304753267
6	9120	18	2.0286304753267
6	9286	18.1	2.0286304753267
6	9382	18.2	2.0286304753267
6	9607	18.3	2.0286304753267
6	9644	18.4	2.0286304753267
6	9716	18.5	2.0286304753267
6	9916	18.6	2.0286304753267
6	10135	18.7	2.0286304753267
6	10172	18.8	2.0286304753267
6	10209	18.9	2.0286304753267
6	10352	19	2.0286304753267
6	10522	19.1	2.0286304753267
6	10620	19.2	2.0286304753267
6	10851	19.3	2.0286304753267
6	10888	19.4	2.0286304753267
6	10960	19.5	2.0286304753267
6	11162	19.6	2.0286304753267
6	11387	19.7	2.0286304753267
6	11424	19.8	2.0286304753267
6	11461	19.9	2.0286304753267
6	11604	20	2.0286304753267
6	11774	20.1	2.0286304753267
6	11872	20.2	2.0286304753267
6	12103	20.3	2.0286304753267
6	12140	20.4	2.0286304753267
6	12212	20.5	2.0286304753267
6	12416	20.6	2.0286304753267
6	12647	20.7	2.0286304753267
6	12684	20.8	2.0286304753267
6	12721	20.9	2.0286304753267
6	12868	21	2.0286304753267
6	13042	21.1	2.0286304753267
6	13140	21.2	2.0286304753267
6	13377	21.3	2.0286304753267
6	13414	21.4	2.0286304753267
6	13486	21.5	2.0286304753267
6	13692	21.6	2.0286304753267
6	13923	21.7	2.0286304753267
6	13960	21.8	2.0286304753267
6	13997	21.9	2.0286304753267
6	14144	22	2.0286304753267
6	14318	22.1	2.0286304753267
6	14416	22.2	2.0286304753267
6	14653	22.3	2.0286304753267
6	14690	22.4	2.0286304753267
6	14762	22.5	2.0286304753267
6	14968	22.6	2.0286304753267
6	15199	22.7	2.0286304753267
6	15236	22.8	2.0286304753267
6	15273	22.9	2.0286304753267
6	15420	23	2.0286304753267
6	15596	23.1	2.0286304753267
6	15696	23.2	2.0286304753267
6	15933	23.3	2.0286304753267
6	15970	23.4	2.0286304753267
6	16046	23.5	2.0286304753267
6	16254	23.6	2.0286304753267
6	16491	23.7	2.0286304753267
6	16528	23.8	2.0286304753267
6	16565	23.9	2.0286304753267
6	16716	24	2.0286304753267
6	16892	24.1	2.0286304753267
6	17059	24.2	2.0286304753267
6	17443	24.3	2.0286304753267
6	17492	24.4	2.0286304753267
6	17590	24.5	2.0286304753267
6	17864	24.6	2.0286304753267
6	18327	24.7	2.0286304753267
6	18376	24.8	2.0286304753267
6	18425	24.9	2.0286304753267
6	18620	25	2.0286304753267
6	18970	25.1	2.0286304753267
6	19143	25.2	2.0286304753267
6	19531	25.3	2.0286304753267
6	19580	25.4	2.0286304753267
6	19682	25.5	2.0286304753267
6	19958	25.6	2.0286304753267
6	20421	25.7	2.0286304753267
6	20470	25.8	2.0286304753267
6	20519	25.9	2.0286304753267
6	20714	26	2.0286304753267
6	21064	26.1	2.0286304753267
6	21237	26.2	2.0286304753267
6	21627	26.3	2.0286304753267
6	21676	26.4	2.0286304753267
6	21778	26.5	2.0286304753267
6	22056	26.6	2.0286304753267
6	22525	26.7	2.0286304753267
6	22574	26.8	2.0286304753267
6	22623	26.9	2.0286304753267
6	22822	27	2.0286304753267
6	23174	27.1	2.0286304753267
6	23347	27.2	2.0286304753267
6	23743	27.3	2.0286304753267
6	23792	27.4	2.0286304753267
6	23898	27.5	2.0286304753267
6	24178	27.6	2.0286304753267
6	24651	27.7	2.0286304753267
6	24700	27.8	2.0286304753267
6	24749	27.9	2.0286304753267
6	24948	28	2.0286304753267
6	25300	28.1	2.0286304753267
6	25473	28.2	2.0286304753267
6	25869	28.3	2.0286304753267
6	25918	28.4	2.0286304753267
6	26032	28.5	2.0286304753267
6	26312	28.6	2.0286304753267
6	26805	28.7	2.0286304753267
6	26854	28.8	2.0286304753267
6	26903	28.9	2.0286304753267
6	27106	29	2.0286304753267
6	27466	29.1	2.0286304753267
6	27639	29.2	2.0286304753267
6	28039	29.3	2.0286304753267
6	28088	29.4	2.0286304753267
6	28204	29.5	2.0286304753267
6	28488	29.6	2.0286304753267
6	28981	29.7	2.0286304753267
6	29030	29.8	2.0286304753267
6	29079	29.9	2.0286304753267
6	29282	30	2.0286304753267
6	29648	30.1	2.0286304753267
6	29823	30.2	2.0286304753267
6	30227	30.3	2.0286304753267
6	30276	30.4	2.0286304753267
6	30392	30.5	2.0286304753267
6	30676	30.6	2.0286304753267
6	31171	30.7	2.0286304753267
6	31220	30.8	2.0286304753267
6	31269	30.9	2.0286304753267
6	31472	31	2.0286304753267
6	31842	31.1	2.0286304753267
6	32017	31.2	2.0286304753267
6	32429	31.3	2.0286304753267
6	32478	31.4	2.0286304753267
6	32594	31.5	2.0286304753267
6	32880	31.6	2.0286304753267
6	33377	31.7	2.0286304753267
6	33426	31.8	2.0286304753267
6	33475	31.9	2.0286304753267
6	33682	32	2.0286304753267
6	34052	32.1	2.0286304753267
6	34261	32.2	2.0286304753267
6	34767	32.3	2.0286304753267
6	34972	32.4	2.0286304753267
6	35120	32.5	2.0286304753267
6	35525	32.6	2.0286304753267
6	36237	32.7	2.0286304753267
6	36298	32.8	2.0286304753267
6	36359	32.9	2.0286304753267
6	36796	33	2.0286304753267
6	37264	33.1	2.0286304753267
6	37479	33.2	2.0286304753267
6	37997	33.3	2.0286304753267
6	38202	33.4	2.0286304753267
6	38350	33.5	2.0286304753267
6	38761	33.6	2.0286304753267
6	39485	33.7	2.0286304753267
6	39546	33.8	2.0286304753267
6	39607	33.9	2.0286304753267
6	40044	34	2.0286304753267
6	40524	34.1	2.0286304753267
6	40743	34.2	2.0286304753267
6	41261	34.3	2.0286304753267
6	41468	34.4	2.0286304753267
6	41616	34.5	2.0286304753267
6	42029	34.6	2.0286304753267
6	42755	34.7	2.0286304753267
6	42816	34.8	2.0286304753267
6	42877	34.9	2.0286304753267
6	43322	35	2.0286304753267
6	43912	35.1	2.0286304753267
6	44175	35.2	0.973
6	44733	35.3	0.973
6	44952	35.4	0.973
6	45116	35.5	0.973
6	45581	35.6	0.973
6	46419	35.7	0.973
6	46480	35.8	0.973
6	46541	35.9	3.379322007223
6	46990	36	3.4099105822618
6	47496	36.1	3.4405423906163
6	47743	36.2	3.47121798656
6	48281	36.3	3.5019379243661
6	48488	36.4	3.5327027583078
6	48642	36.5	3.5635130426586
6	49055	36.6	3.5943693316915
6	49803	36.7	3.62527217968
6	49864	36.8	3.6562221408973
6	49925	36.9	3.6872197696166
6	50374	37	3.7182656201114
6	50884	37.1	3.7493602466547
6	51109	37.2	3.78050420352
6	51647	37.3	3.8116980449805
6	51856	37.4	3.8429423253094
6	52010	37.5	3.8742375987801
6	52425	37.6	3.9055844196659
6	53177	37.7	3.93698334224
6	53238	37.8	3.9684349207757
6	53299	37.9	3.9999397095462
6	53748	38	4.0314982628249
6	54256	38.1	4.0631111348851
6	54487	38.2	4.09477888
6	55029	38.3	4.1265020524429
6	55238	38.4	4.158281206487
6	55392	38.5	4.1901168964057
6	55805	38.6	4.2220096764723
6	56545	38.7	4.25396010096
6	56606	38.8	4.2859687241421
6	56667	38.9	4.3180361002918
6	57120	39	4.3501627836825
6	57632	39.1	4.3823493285875
6	57867	39.2	4.41459628928
6	58411	39.3	4.4469042200333
6	58620	39.4	4.4792736751206
6	58774	39.5	4.5117052088153
6	59189	39.6	4.5441993753907
6	59929	39.7	4.57675672912
6	59990	39.8	4.6093778242765
6	60051	39.9	4.6420632151334
6	60506	40	4.6748134559641
6	61024	40.1	4.7076291010419
6	61293	40.2	4.74051070464
6	61998	40.3	4.7734588210317
6	62358	40.4	4.8064740044902
6	62544	40.5	4.8395568092889
6	63041	40.6	4.8727077897011
6	63921	40.7	4.9059275
6	64107	40.8	4.9392164944589
6	64243	40.9	4.972575327351
6	65000	41	5.0060045529497
6	65622	41.1	5.0395047255283
6	65907	41.2	5.07307639936
6	66620	41.3	5.1067201287181
6	66986	41.4	5.1404364678758
6	67172	41.5	5.1742259711065
6	67673	41.6	5.2080891926835
6	68571	41.7	5.24202668688
6	68757	41.8	5.2760390079693
6	68899	41.9	5.3101267102246
6	69656	42	5.3442903479193
6	70284	42.1	5.3785304753267
6	70569	42.2	2.0286304753276
6	71290	42.3	2.0286304753267
6	71658	42.4	2.0286304753267
6	71852	42.5	2.0286304753267
6	72353	42.6	2.0286304753267
6	73255	42.7	2.0286304753267
6	73443	42.8	2.0286304753267
6	73585	42.9	2.0286304753267
6	74350	43	2.0286304753267
6	75040	43.1	2.0286304753267
6	75349	43.2	2.0286304753267
6	76198	43.3	2.0286304753267
6	76584	43.4	2.0286304753267
6	76826	43.5	2.0286304753267
6	77387	43.6	2.0286304753267
6	78421	43.7	2.0286304753267
6	78613	43.8	2.0286304753267
6	78763	43.9	2.0286304753267
6	79540	44	2.0286304753267
6	80206	44.1	2.0286304753267
6	80499	44.2	2.0286304753267
6	81236	44.3	2.0286304753267
6	81606	44.4	2.0286304753267
6	81800	44.5	2.0286304753267
6	82307	44.6	2.0286304753267
6	83225	44.7	2.0286304753267
6	83415	44.8	2.0286304753267
6	83557	44.9	2.0286304753267
6	84330	45	2.0286304753267
6	84980	45.1	2.0286304753267
6	85279	45.2	2.0286304753267
6	86016	45.3	2.0286304753267
6	86398	45.4	2.0286304753267
6	86598	45.5	2.0286304753267
6	87113	45.6	2.0286304753267
6	88025	45.7	2.0286304753267
6	88215	45.8	2.0286304753267
6	88357	45.9	2.0286304753267
6	89134	46	2.0286304753267
6	89784	46.1	2.0286304753267
6	90083	46.2	2.0286304753267
6	90816	46.3	2.0286304753267
6	91206	46.4	2.0286304753267
6	91398	46.5	2.0286304753267
6	91919	46.6	2.0286304753267
6	92829	46.7	2.0286304753267
6	93019	46.8	2.0286304753267
6	93161	46.9	2.0286304753267
6	93938	47	2.0286304753267
6	94592	47.1	2.0286304753267
6	94893	47.2	2.0286304753267
6	95628	47.3	2.0286304753267
6	96024	47.4	2.0286304753267
6	96216	47.5	2.0286304753267
6	96741	47.6	2.0286304753267
6	97655	47.7	2.0286304753267
6	97845	47.8	2.0286304753267
6	97993	47.9	2.0286304753267
6	98774	48	2.0286304753267
6	99428	48.1	2.0286304753267
6	99977	48.2	2.0286304753267
6	100820	48.3	2.0286304753267
5	41	0.3	1
5	54	0.4	1
5	67	0.5	1
5	99	0.6	1
5	144	0.7	1
5	157	0.8	1
5	170	0.9	1
5	183	1	1
5	228	1.1	1
5	260	1.2	1
5	273	1.3	1
5	286	1.4	1
5	299	1.5	1
5	331	1.6	1
5	376	1.7	1
5	389	1.8	1
5	402	1.9	1
5	415	2	1
5	460	2.1	1
5	492	2.2	1
5	505	2.3	1
5	518	2.4	1
5	531	2.5	1
5	563	2.6	1
5	608	2.7	1
5	621	2.8	1
5	634	2.9	1
5	647	3	1
5	692	3.1	1
5	724	3.2	1
5	737	3.3	1
5	750	3.4	1
5	763	3.5	1
5	795	3.6	1
5	840	3.7	1
5	853	3.8	1
5	866	3.9	1
5	879	4	1
5	924	4.1	1
5	956	4.2	1
5	969	4.3	1
5	982	4.4	1
5	995	4.5	1
5	1027	4.6	1
5	1072	4.7	1
5	1085	4.8	1
5	1098	4.9	1
5	1111	5	1
5	1156	5.1	1
5	1188	5.2	1
5	1201	5.3	1
5	1214	5.4	1
5	1227	5.5	1
5	1259	5.6	1
5	1304	5.7	1
5	1317	5.8	1
5	1330	5.9	1
5	1343	6	1
5	1388	6.1	1
5	1420	6.2	1
5	1433	6.3	1
5	1446	6.4	1
5	1459	6.5	1
5	1491	6.6	1
5	1536	6.7	1
5	1549	6.8	1
5	1562	6.9	1
5	1575	7	1
5	1620	7.1	1
5	1652	7.2	1
5	1665	7.3	1
5	1678	7.4	1
5	1691	7.5	1
5	1723	7.6	1
5	1768	7.7	1
5	1781	7.8	1
5	1794	7.9	1
5	1807	8	1
5	1852	8.1	1
5	1906	8.2	1
5	2001	8.3	1
5	2026	8.4	1
5	2076	8.5	1
5	2169	8.6	1
5	2310	8.7	1
5	2335	8.8	1
5	2360	8.9	1
5	2385	9	1
5	2468	9.1	1
5	2528	9.2	1
5	2623	9.3	1
5	2648	9.4	1
5	2698	9.5	1
5	2791	9.6	1
5	2932	9.7	1
5	2957	9.8	1
5	2982	9.9	1
5	3007	10	1
5	3090	10.1	1
5	3150	10.2	1
5	3245	10.3	1
5	3270	10.4	1
5	3320	10.5	1
5	3413	10.6	1
5	3554	10.7	1
5	3579	10.8	1
5	3604	10.9	1
5	3629	11	1
5	3712	11.1	1
5	3772	11.2	1
5	3867	11.3	1
5	3892	11.4	1
5	3942	11.5	1
5	4035	11.6	1
5	4176	11.7	1
5	4201	11.8	1
5	4226	11.9	1
5	4251	12	1
5	4334	12.1	1
5	4394	12.2	1
5	4489	12.3	1
5	4514	12.4	1
5	4564	12.5	1
5	4659	12.6	1
5	4800	12.7	1
5	4825	12.8	1
5	4850	12.9	1
5	4875	13	1
5	4960	13.1	1
5	5022	13.2	1
5	5117	13.3	1
5	5142	13.4	1
5	5192	13.5	1
5	5287	13.6	1
5	5430	13.7	1
5	5455	13.8	1
5	5480	13.9	1
5	5505	14	1
5	5590	14.1	3.3750779948605e-13
5	5652	14.2	0
5	5747	14.3	0
5	5772	14.4	0
5	5822	14.5	0
5	5917	14.6	0
5	6060	14.7	0
5	6085	14.8	0
5	6110	14.9	0
5	6135	15	0
5	6220	15.1	0
5	6282	15.2	0
5	6377	15.3	0
5	6402	15.4	0
5	6452	15.5	0
5	6547	15.6	0
5	6690	15.7	0
5	6715	15.8	0
5	6740	15.9	0
5	6765	16	0
5	6852	16.1	0
5	6940	16.2	0
5	7165	16.3	0
5	7202	16.4	0
5	7274	16.5	0
5	7470	16.6	0
5	7687	16.7	0
5	7724	16.8	0
5	7761	16.9	0
5	7900	17	0
5	8064	17.1	0
5	8160	17.2	0
5	8385	17.3	0
5	8422	17.4	0
5	8494	17.5	0
5	8690	17.6	0
5	8907	17.7	0
5	8944	17.8	0
5	8981	17.9	0
5	9120	18	0
5	9286	18.1	0
5	9382	18.2	0
5	9607	18.3	0
5	9644	18.4	0
5	9716	18.5	0
5	9916	18.6	0
5	10135	18.7	0
5	10172	18.8	0
5	10209	18.9	0
5	10352	19	0
5	10522	19.1	0
5	10620	19.2	0
5	10851	19.3	0
5	10888	19.4	0
5	10960	19.5	0
5	11162	19.6	0
5	11387	19.7	0
5	11424	19.8	0
5	11461	19.9	0
5	11604	20	0
5	11774	20.1	0
5	11872	20.2	0
5	12103	20.3	0
5	12140	20.4	0
5	12212	20.5	0
5	12416	20.6	0
5	12647	20.7	0
5	12684	20.8	0
5	12721	20.9	0
5	12868	21	0
5	13042	21.1	0
5	13140	21.2	0
5	13377	21.3	0
5	13414	21.4	0
5	13486	21.5	0
5	13692	21.6	0
5	13923	21.7	0
5	13960	21.8	0
5	13997	21.9	0
5	14144	22	0
5	14318	22.1	0
5	14416	22.2	0
5	14653	22.3	0
5	14690	22.4	0
5	14762	22.5	0
5	14968	22.6	0
5	15199	22.7	0
5	15236	22.8	0
5	15273	22.9	0
5	15420	23	0
5	15596	23.1	0
5	15696	23.2	0
5	15933	23.3	0
5	15970	23.4	0
5	16046	23.5	0
5	16254	23.6	0
5	16491	23.7	0
5	16528	23.8	0
5	16565	23.9	0
5	16716	24	0
5	16892	24.1	0
5	17059	24.2	0
5	17443	24.3	0
5	17492	24.4	0
5	17590	24.5	0
5	17864	24.6	0
5	18327	24.7	0
5	18376	24.8	0
5	18425	24.9	0
5	18620	25	0
5	18970	25.1	0
5	19143	25.2	0
5	19531	25.3	0
5	19580	25.4	0
5	19682	25.5	0
5	19958	25.6	0
5	20421	25.7	0
5	20470	25.8	0
5	20519	25.9	0
5	20714	26	0
5	21064	26.1	0
5	21237	26.2	0
5	21627	26.3	0
5	21676	26.4	0
5	21778	26.5	0
5	22056	26.6	0
5	22525	26.7	0
5	22574	26.8	0
5	22623	26.9	0
5	22822	27	0
5	23174	27.1	0
5	23347	27.2	0
5	23743	27.3	0
5	23792	27.4	0
5	23898	27.5	0
5	24178	27.6	0
5	24651	27.7	0
5	24700	27.8	0
5	24749	27.9	0
5	24948	28	0
5	25300	28.1	0
5	25473	28.2	0
5	25869	28.3	0
5	25918	28.4	0
5	26032	28.5	0
5	26312	28.6	0
5	26805	28.7	0
5	26854	28.8	0
5	26903	28.9	0
5	27106	29	0
5	27466	29.1	0
5	27639	29.2	0
5	28039	29.3	0
5	28088	29.4	0
5	28204	29.5	0
5	28488	29.6	0
5	28981	29.7	0
5	29030	29.8	0
5	29079	29.9	0
5	29282	30	0
5	29648	30.1	0
5	29823	30.2	0
5	30227	30.3	0
5	30276	30.4	0
5	30392	30.5	0
5	30676	30.6	0
5	31171	30.7	0
5	31220	30.8	0
5	31269	30.9	0
5	31472	31	0
5	31842	31.1	0
5	32017	31.2	0
5	32429	31.3	0
5	32478	31.4	0
5	32594	31.5	0
5	32880	31.6	0
5	33377	31.7	0
5	33426	31.8	0
5	33475	31.9	0
5	33682	32	0
5	34052	32.1	0
5	34261	32.2	0
5	34767	32.3	0
5	34972	32.4	0
5	35120	32.5	0
5	35525	32.6	0
5	36237	32.7	0
5	36298	32.8	0
5	36359	32.9	0
5	36796	33	0
5	37264	33.1	0
5	37479	33.2	0
5	37997	33.3	0
5	38202	33.4	0
5	38350	33.5	0
5	38761	33.6	0
5	39485	33.7	0
5	39546	33.8	0
5	39607	33.9	0
5	40044	34	0
5	40524	34.1	0
5	40743	34.2	0
5	41261	34.3	0
5	41468	34.4	0
5	41616	34.5	0
5	42029	34.6	0
5	42755	34.7	0
5	42816	34.8	0
5	42877	34.9	0
5	43322	35	0
5	43912	35.1	0
5	44175	35.2	-9
5	44733	35.3	-9
5	44952	35.4	-9
5	45116	35.5	-9
5	45581	35.6	-9
5	46419	35.7	-9
5	46480	35.8	-9
5	46541	35.9	1
5	46990	36	1
5	47496	36.1	1
5	47743	36.2	1
5	48281	36.3	1
5	48488	36.4	1
5	48642	36.5	1
5	49055	36.6	1
5	49803	36.7	1
5	49864	36.8	1
5	49925	36.9	1
5	50374	37	1
5	50884	37.1	1
5	51109	37.2	1
5	51647	37.3	1
5	51856	37.4	1
5	52010	37.5	1
5	52425	37.6	1
5	53177	37.7	1
5	53238	37.8	1
5	53299	37.9	1
5	53748	38	1
5	54256	38.1	1
5	54487	38.2	1
5	55029	38.3	1
5	55238	38.4	1
5	55392	38.5	1
5	55805	38.6	1
5	56545	38.7	1
5	56606	38.8	1
5	56667	38.9	1
5	57120	39	1
5	57632	39.1	1
5	57867	39.2	1
5	58411	39.3	1
5	58620	39.4	1
5	58774	39.5	1
5	59189	39.6	1
5	59929	39.7	1
5	59990	39.8	1
5	60051	39.9	1
5	60506	40	1
5	61024	40.1	1
5	61293	40.2	1
5	61998	40.3	1
5	62358	40.4	1
5	62544	40.5	1
5	63041	40.6	1
5	63921	40.7	1
5	64107	40.8	1
5	64243	40.9	1
5	65000	41	1
5	65622	41.1	1
5	65907	41.2	1
5	66620	41.3	1
5	66986	41.4	1
5	67172	41.5	1
5	67673	41.6	1
5	68571	41.7	1
5	68757	41.8	1
5	68899	41.9	1
5	69656	42	1
5	70284	42.1	1
5	70569	42.2	2.4868995751604e-13
5	71290	42.3	0
5	71658	42.4	0
5	71852	42.5	0
5	72353	42.6	0
5	73255	42.7	0
5	73443	42.8	0
5	73585	42.9	0
5	74350	43	0
5	75040	43.1	0
5	75349	43.2	0
5	76198	43.3	0
5	76584	43.4	0
5	76826	43.5	0
5	77387	43.6	0
5	78421	43.7	0
5	78613	43.8	0
5	78763	43.9	0
5	79540	44	0
5	80206	44.1	0
5	80499	44.2	0
5	81236	44.3	0
5	81606	44.4	0
5	81800	44.5	0
5	82307	44.6	0
5	83225	44.7	0
5	83415	44.8	0
5	83557	44.9	0
5	84330	45	0
5	84980	45.1	0
5	85279	45.2	0
5	86016	45.3	0
5	86398	45.4	0
5	86598	45.5	0
5	87113	45.6	0
5	88025	45.7	0
5	88215	45.8	0
5	88357	45.9	0
5	89134	46	0
5	89784	46.1	0
5	90083	46.2	0
5	90816	46.3	0
5	91206	46.4	0
5	91398	46.5	0
5	91919	46.6	0
5	92829	46.7	0
5	93019	46.8	0
5	93161	46.9	0
5	93938	47	0
5	94592	47.1	0
5	94893	47.2	0
5	95628	47.3	0
5	96024	47.4	0
5	96216	47.5	0
5	96741	47.6	0
5	97655	47.7	0
5	97845	47.8	0
5	97993	47.9	0
5	98774	48	0
5	99428	48.1	0
5	99977	48.2	0
5	100820	48.3	0
4	28	0.2	0.1
4	41	0.3	0.2
4	54	0.4	0.3
4	67	0.5	0.4
4	99	0.6	0.5
4	144	0.7	0.6
4	157	0.8	0.7
4	170	0.9	0.8
4	183	1	0.9
4	228	1.1	1
4	260	1.2	1.1
4	273	1.3	1.2
4	286	1.4	1.3
4	299	1.5	1.4
4	331	1.6	1.5
4	376	1.7	1.6
4	389	1.8	1.7
4	402	1.9	1.8
4	415	2	1.9
4	460	2.1	2
4	492	2.2	2.1
4	505	2.3	2.2
4	518	2.4	2.3
4	531	2.5	2.4
4	563	2.6	2.5
4	608	2.7	2.6
4	621	2.8	2.7
4	634	2.9	2.8
4	647	3	2.9
4	692	3.1	3
4	724	3.2	3.1
4	737	3.3	3.2
4	750	3.4	3.3
4	763	3.5	3.4
4	795	3.6	3.5
4	840	3.7	3.6
4	853	3.8	3.7
4	866	3.9	3.8
4	879	4	3.9
4	924	4.1	4
4	956	4.2	4.1
4	969	4.3	4.2
4	982	4.4	4.3
4	995	4.5	4.4
4	1027	4.6	4.5
4	1072	4.7	4.6
4	1085	4.8	4.7
4	1098	4.9	4.8
4	1111	5	4.9
4	1156	5.1	5
4	1188	5.2	5.1
4	1201	5.3	5.2
4	1214	5.4	5.3
4	1227	5.5	5.4
4	1259	5.6	5.5
4	1304	5.7	5.6
4	1317	5.8	5.7
4	1330	5.9	5.8
4	1343	6	5.9
4	1388	6.1	6
4	1420	6.2	6.1
4	1433	6.3	6.2
4	1446	6.4	6.3
4	1459	6.5	6.4
4	1491	6.6	6.5
4	1536	6.7	6.6
4	1549	6.8	6.7
4	1562	6.9	6.8
4	1575	7	6.9
4	1620	7.1	7
4	1652	7.2	7.1
4	1665	7.3	7.2
4	1678	7.4	7.3
4	1691	7.5	7.4
4	1723	7.6	7.5
4	1768	7.7	7.6
4	1781	7.8	7.7
4	1794	7.9	7.8
4	1807	8	7.9
4	1852	8.1	8
4	1906	8.2	8.1
4	2001	8.3	8.2
4	2026	8.4	8.3
4	2076	8.5	8.4
4	2169	8.6	8.5
4	2310	8.7	8.6
4	2335	8.8	8.7
4	2360	8.9	8.8
4	2385	9	8.9
4	2468	9.1	9
4	2528	9.2	9.1
4	2623	9.3	9.2
4	2648	9.4	9.3
4	2698	9.5	9.4
4	2791	9.6	9.5
4	2932	9.7	9.6
4	2957	9.8	9.7
4	2982	9.9	9.8
4	3007	10	9.9
4	3090	10.1	10
4	3150	10.2	10.1
4	3245	10.3	10.2
4	3270	10.4	10.3
4	3320	10.5	10.4
4	3413	10.6	10.5
4	3554	10.7	10.6
4	3579	10.8	10.7
4	3604	10.9	10.8
4	3629	11	10.9
4	3712	11.1	11
4	3772	11.2	11.1
4	3867	11.3	11.2
4	3892	11.4	11.3
4	3942	11.5	11.4
4	4035	11.6	11.5
4	4176	11.7	11.6
4	4201	11.8	11.7
4	4226	11.9	11.8
4	4251	12	11.9
4	4334	12.1	12
4	4394	12.2	12.1
4	4489	12.3	12.2
4	4514	12.4	12.3
4	4564	12.5	12.4
4	4659	12.6	12.5
4	4800	12.7	12.6
4	4825	12.8	12.7
4	4850	12.9	12.8
4	4875	13	12.9
4	4960	13.1	13
4	5022	13.2	13.1
4	5117	13.3	13.2
4	5142	13.4	13.3
4	5192	13.5	13.4
4	5287	13.6	13.5
4	5430	13.7	13.6
4	5455	13.8	13.7
4	5480	13.9	13.8
4	5505	14	13.9
4	5590	14.1	13.9
4	5652	14.2	13.9
4	5747	14.3	13.9
4	5772	14.4	13.9
4	5822	14.5	13.9
4	5917	14.6	13.9
4	6060	14.7	13.9
4	6085	14.8	13.9
4	6110	14.9	13.9
4	6135	15	13.9
4	6220	15.1	13.9
4	6282	15.2	13.9
4	6377	15.3	13.9
4	6402	15.4	13.9
4	6452	15.5	13.9
4	6547	15.6	13.9
4	6690	15.7	13.9
4	6715	15.8	13.9
4	6740	15.9	13.9
4	6765	16	13.9
4	6852	16.1	13.9
4	6940	16.2	13.9
4	7165	16.3	13.9
4	7202	16.4	13.9
4	7274	16.5	13.9
4	7470	16.6	13.9
4	7687	16.7	13.9
4	7724	16.8	13.9
4	7761	16.9	13.9
4	7900	17	13.9
4	8064	17.1	13.9
4	8160	17.2	13.9
4	8385	17.3	13.9
4	8422	17.4	13.9
4	8494	17.5	13.9
4	8690	17.6	13.9
4	8907	17.7	13.9
4	8944	17.8	13.9
4	8981	17.9	13.9
4	9120	18	13.9
4	9286	18.1	13.9
4	9382	18.2	13.9
4	9607	18.3	13.9
4	9644	18.4	13.9
4	9716	18.5	13.9
4	9916	18.6	13.9
4	10135	18.7	13.9
4	10172	18.8	13.9
4	10209	18.9	13.9
4	10352	19	13.9
4	10522	19.1	13.9
4	10620	19.2	13.9
4	10851	19.3	13.9
4	10888	19.4	13.9
4	10960	19.5	13.9
4	11162	19.6	13.9
4	11387	19.7	13.9
4	11424	19.8	13.9
4	11461	19.9	13.9
4	11604	20	13.9
4	11774	20.1	13.9
4	11872	20.2	13.9
4	12103	20.3	13.9
4	12140	20.4	13.9
4	12212	20.5	13.9
4	12416	20.6	13.9
4	12647	20.7	13.9
4	12684	20.8	13.9
4	12721	20.9	13.9
4	12868	21	13.9
4	13042	21.1	13.9
4	13140	21.2	13.9
4	13377	21.3	13.9
4	13414	21.4	13.9
4	13486	21.5	13.9
4	13692	21.6	13.9
4	13923	21.7	13.9
4	13960	21.8	13.9
4	13997	21.9	13.9
4	14144	22	13.9
4	14318	22.1	13.9
4	14416	22.2	13.9
4	14653	22.3	13.9
4	14690	22.4	13.9
4	14762	22.5	13.9
4	14968	22.6	13.9
4	15199	22.7	13.9
4	15236	22.8	13.9
4	15273	22.9	13.9
4	15420	23	13.9
4	15596	23.1	13.9
4	15696	23.2	13.9
4	15933	23.3	13.9
4	15970	23.4	13.9
4	16046	23.5	13.9
4	16254	23.6	13.9
4	16491	23.7	13.9
4	16528	23.8	13.9
4	16565	23.9	13.9
4	16716	24	13.9
4	16892	24.1	13.9
4	17059	24.2	13.9
4	17443	24.3	13.9
4	17492	24.4	13.9
4	17590	24.5	13.9
4	17864	24.6	13.9
4	18327	24.7	13.9
4	18376	24.8	13.9
4	18425	24.9	13.9
4	18620	25	13.9
4	18970	25.1	13.9
4	19143	25.2	13.9
4	19531	25.3	13.9
4	19580	25.4	13.9
4	19682	25.5	13.9
4	19958	25.6	13.9
4	20421	25.7	13.9
4	20470	25.8	13.9
4	20519	25.9	13.9
4	20714	26	13.9
4	21064	26.1	13.9
4	21237	26.2	13.9
4	21627	26.3	13.9
4	21676	26.4	13.9
4	21778	26.5	13.9
4	22056	26.6	13.9
4	22525	26.7	13.9
4	22574	26.8	13.9
4	22623	26.9	13.9
4	22822	27	13.9
4	23174	27.1	13.9
4	23347	27.2	13.9
4	23743	27.3	13.9
4	23792	27.4	13.9
4	23898	27.5	13.9
4	24178	27.6	13.9
4	24651	27.7	13.9
4	24700	27.8	13.9
4	24749	27.9	13.9
4	24948	28	13.9
4	25300	28.1	13.9
4	25473	28.2	13.9
4	25869	28.3	13.9
4	25918	28.4	13.9
4	26032	28.5	13.9
4	26312	28.6	13.9
4	26805	28.7	13.9
4	26854	28.8	13.9
4	26903	28.9	13.9
4	27106	29	13.9
4	27466	29.1	13.9
4	27639	29.2	13.9
4	28039	29.3	13.9
4	28088	29.4	13.9
4	28204	29.5	13.9
4	28488	29.6	13.9
4	28981	29.7	13.9
4	29030	29.8	13.9
4	29079	29.9	13.9
4	29282	30	13.9
4	29648	30.1	13.9
4	29823	30.2	13.9
4	30227	30.3	13.9
4	30276	30.4	13.9
4	30392	30.5	13.9
4	30676	30.6	13.9
4	31171	30.7	13.9
4	31220	30.8	13.9
4	31269	30.9	13.9
4	31472	31	13.9
4	31842	31.1	13.9
4	32017	31.2	13.9
4	32429	31.3	13.9
4	32478	31.4	13.9
4	32594	31.5	13.9
4	32880	31.6	13.9
4	33377	31.7	13.9
4	33426	31.8	13.9
4	33475	31.9	13.9
4	33682	32	13.9
4	34052	32.1	13.9
4	34261	32.2	13.9
4	34767	32.3	13.9
4	34972	32.4	13.9
4	35120	32.5	13.9
4	35525	32.6	13.9
4	36237	32.7	13.9
4	36298	32.8	13.9
4	36359	32.9	13.9
4	36796	33	13.9
4	37264	33.1	13.9
4	37479	33.2	13.9
4	37997	33.3	13.9
4	38202	33.4	13.9
4	38350	33.5	13.9
4	38761	33.6	13.9
4	39485	33.7	13.9
4	39546	33.8	13.9
4	39607	33.9	13.9
4	40044	34	13.9
4	40524	34.1	13.9
4	40743	34.2	13.9
4	41261	34.3	13.9
4	41468	34.4	13.9
4	41616	34.5	13.9
4	42029	34.6	13.9
4	42755	34.7	13.9
4	42816	34.8	13.9
4	42877	34.9	13.9
4	43322	35	13.9
4	43912	35.1	13.9
4	44175	35.2	13
4	44733	35.3	12.1
4	44952	35.4	11.2
4	45116	35.5	10.3
4	45581	35.6	9.4
4	46419	35.7	8.5
4	46480	35.8	7.6
4	46541	35.9	7.7
4	46990	36	7.8
4	47496	36.1	7.9
4	47743	36.2	8
4	48281	36.3	8.1
4	48488	36.4	8.2
4	48642	36.5	8.3
4	49055	36.6	8.4
4	49803	36.7	8.5
4	49864	36.8	8.6
4	49925	36.9	8.7
4	50374	37	8.8
4	50884	37.1	8.9
4	51109	37.2	9
4	51647	37.3	9.1
4	51856	37.4	9.2
4	52010	37.5	9.3
4	52425	37.6	9.4
4	53177	37.7	9.5
4	53238	37.8	9.6
4	53299	37.9	9.7
4	53748	38	9.8
4	54256	38.1	9.9
4	54487	38.2	10
4	55029	38.3	10.1
4	55238	38.4	10.2
4	55392	38.5	10.3
4	55805	38.6	10.4
4	56545	38.7	10.5
4	56606	38.8	10.6
4	56667	38.9	10.7
4	57120	39	10.8
4	57632	39.1	10.9
4	57867	39.2	11
4	58411	39.3	11.1
4	58620	39.4	11.2
4	58774	39.5	11.3
4	59189	39.6	11.4
4	59929	39.7	11.5
4	59990	39.8	11.6
4	60051	39.9	11.7
4	60506	40	11.8
4	61024	40.1	11.9
4	61293	40.2	12
4	61998	40.3	12.1
4	62358	40.4	12.2
4	62544	40.5	12.3
4	63041	40.6	12.4
4	63921	40.7	12.5
4	64107	40.8	12.6
4	64243	40.9	12.7
4	65000	41	12.8
4	65622	41.1	12.9
4	65907	41.2	13
4	66620	41.3	13.1
4	66986	41.4	13.2
4	67172	41.5	13.3
4	67673	41.6	13.4
4	68571	41.7	13.5
4	68757	41.8	13.6
4	68899	41.9	13.7
4	69656	42	13.8
4	70284	42.1	13.9
4	70569	42.2	13.9
4	71290	42.3	13.9
4	71658	42.4	13.9
4	71852	42.5	13.9
4	72353	42.6	13.9
4	73255	42.7	13.9
4	73443	42.8	13.9
4	73585	42.9	13.9
4	74350	43	13.9
4	75040	43.1	13.9
4	75349	43.2	13.9
4	76198	43.3	13.9
4	76584	43.4	13.9
4	76826	43.5	13.9
4	77387	43.6	13.9
4	78421	43.7	13.9
4	78613	43.8	13.9
4	78763	43.9	13.9
4	79540	44	13.9
4	80206	44.1	13.9
4	80499	44.2	13.9
4	81236	44.3	13.9
4	81606	44.4	13.9
4	81800	44.5	13.9
4	82307	44.6	13.9
4	83225	44.7	13.9
4	83415	44.8	13.9
4	83557	44.9	13.9
4	84330	45	13.9
4	84980	45.1	13.9
4	85279	45.2	13.9
4	86016	45.3	13.9
4	86398	45.4	13.9
4	86598	45.5	13.9
4	87113	45.6	13.9
4	88025	45.7	13.9
4	88215	45.8	13.9
4	88357	45.9	13.9
4	89134	46	13.9
4	89784	46.1	13.9
4	90083	46.2	13.9
4	90816	46.3	13.9
4	91206	46.4	13.9
4	91398	46.5	13.9
4	91919	46.6	13.9
4	92829	46.7	13.9
4	93019	46.8	13.9
4	93161	46.9	13.9
4	93938	47	13.9
4	94592	47.1	13.9
4	94893	47.2	13.9
4	95628	47.3	13.9
4	96024	47.4	13.9
4	96216	47.5	13.9
4	96741	47.6	13.9
4	97655	47.7	13.9
4	97845	47.8	13.9
4	97993	47.9	13.9
4	98774	48	13.9
4	99428	48.1	13.9
4	99977	48.2	13.9
4	100820	48.3	13.9
3	2	0.1	426.65
3	28	0.2	426.65
3	41	0.3	426.65
3	54	0.4	426.65
3	67	0.5	426.65
3	99	0.6	426.65
3	144	0.7	426.65
3	157	0.8	426.65
3	170	0.9	426.65
3	183	1	426.65
3	228	1.1	426.65
3	260	1.2	426.65
3	273	1.3	426.65
3	286	1.4	426.65
3	299	1.5	426.65
3	331	1.6	426.65
3	376	1.7	426.65
3	389	1.8	426.65
3	402	1.9	426.65
3	415	2	426.65
3	460	2.1	426.65
3	492	2.2	426.65
3	505	2.3	426.65
3	518	2.4	426.65
3	531	2.5	426.65
3	563	2.6	426.65
3	608	2.7	426.65
3	621	2.8	426.65
3	634	2.9	426.65
3	647	3	426.65
3	692	3.1	426.65
3	724	3.2	426.65
3	737	3.3	426.65
3	750	3.4	426.65
3	763	3.5	426.65
3	795	3.6	426.65
3	840	3.7	426.65
3	853	3.8	426.65
3	866	3.9	426.65
3	879	4	426.65
3	924	4.1	426.65
3	956	4.2	426.65
3	969	4.3	426.65
3	982	4.4	426.65
3	995	4.5	426.65
3	1027	4.6	426.65
3	1072	4.7	426.65
3	1085	4.8	426.65
3	1098	4.9	426.65
3	1111	5	426.65
3	1156	5.1	426.65
3	1188	5.2	426.65
3	1201	5.3	426.65
3	1214	5.4	426.65
3	1227	5.5	426.65
3	1259	5.6	426.65
3	1304	5.7	426.65
3	1317	5.8	426.65
3	1330	5.9	426.65
3	1343	6	426.65
3	1388	6.1	426.65
3	1420	6.2	426.65
3	1433	6.3	426.65
3	1446	6.4	426.65
3	1459	6.5	426.65
3	1491	6.6	426.65
3	1536	6.7	426.65
3	1549	6.8	426.65
3	1562	6.9	426.65
3	1575	7	426.65
3	1620	7.1	426.65
3	1652	7.2	426.65
3	1665	7.3	426.65
3	1678	7.4	426.65
3	1691	7.5	426.65
3	1723	7.6	426.65
3	1768	7.7	426.65
3	1781	7.8	426.65
3	1794	7.9	426.65
3	1807	8	426.65
3	1852	8.1	426.65
3	1906	8.2	426.65
3	2001	8.3	426.65
3	2026	8.4	426.65
3	2076	8.5	426.65
3	2169	8.6	426.65
3	2310	8.7	426.65
3	2335	8.8	426.65
3	2360	8.9	426.65
3	2385	9	426.65
3	2468	9.1	426.65
3	2528	9.2	426.65
3	2623	9.3	426.65
3	2648	9.4	426.65
3	2698	9.5	426.65
3	2791	9.6	426.65
3	2932	9.7	426.65
3	2957	9.8	426.65
3	2982	9.9	426.65
3	3007	10	426.65
3	3090	10.1	426.65
3	3150	10.2	426.65
3	3245	10.3	426.65
3	3270	10.4	426.65
3	3320	10.5	426.65
3	3413	10.6	426.65
3	3554	10.7	426.65
3	3579	10.8	426.65
3	3604	10.9	426.65
3	3629	11	426.65
3	3712	11.1	426.65
3	3772	11.2	426.65
3	3867	11.3	426.65
3	3892	11.4	426.65
3	3942	11.5	426.65
3	4035	11.6	426.65
3	4176	11.7	426.65
3	4201	11.8	426.65
3	4226	11.9	426.65
3	4251	12	426.65
3	4334	12.1	426.65
3	4394	12.2	426.65
3	4489	12.3	426.65
3	4514	12.4	426.65
3	4564	12.5	426.65
3	4659	12.6	426.65
3	4800	12.7	426.65
3	4825	12.8	426.65
3	4850	12.9	426.65
3	4875	13	426.65
3	4960	13.1	426.65
3	5022	13.2	426.65
3	5117	13.3	426.65
3	5142	13.4	426.65
3	5192	13.5	426.65
3	5287	13.6	426.65
3	5430	13.7	426.65
3	5455	13.8	426.65
3	5480	13.9	426.65
3	5505	14	426.65
3	5590	14.1	426.65
3	5652	14.2	426.65
3	5747	14.3	426.65
3	5772	14.4	426.65
3	5822	14.5	426.65
3	5917	14.6	426.65
3	6060	14.7	426.65
3	6085	14.8	426.65
3	6110	14.9	426.65
3	6135	15	426.65
3	6220	15.1	426.65
3	6282	15.2	426.65
3	6377	15.3	426.65
3	6402	15.4	426.65
3	6452	15.5	426.65
3	6547	15.6	426.65
3	6690	15.7	426.65
3	6715	15.8	426.65
3	6740	15.9	426.65
3	6765	16	426.65
3	6852	16.1	426.65
3	6940	16.2	426.65
3	7165	16.3	426.65
3	7202	16.4	426.65
3	7274	16.5	426.65
3	7470	16.6	426.65
3	7687	16.7	426.65
3	7724	16.8	426.65
3	7761	16.9	426.65
3	7900	17	426.65
3	8064	17.1	426.65
3	8160	17.2	426.65
3	8385	17.3	426.65
3	8422	17.4	426.65
3	8494	17.5	426.65
3	8690	17.6	426.65
3	8907	17.7	426.65
3	8944	17.8	426.65
3	8981	17.9	426.65
3	9120	18	426.65
3	9286	18.1	426.65
3	9382	18.2	426.65
3	9607	18.3	426.65
3	9644	18.4	426.65
3	9716	18.5	426.65
3	9916	18.6	426.65
3	10135	18.7	426.65
3	10172	18.8	426.65
3	10209	18.9	426.65
3	10352	19	426.65
3	10522	19.1	426.65
3	10620	19.2	426.65
3	10851	19.3	426.65
3	10888	19.4	426.65
3	10960	19.5	426.65
3	11162	19.6	426.65
3	11387	19.7	426.65
3	11424	19.8	426.65
3	11461	19.9	426.65
3	11604	20	426.65
3	11774	20.1	426.65
3	11872	20.2	426.65
3	12103	20.3	426.65
3	12140	20.4	426.65
3	12212	20.5	426.65
3	12416	20.6	426.65
3	12647	20.7	426.65
3	12684	20.8	426.65
3	12721	20.9	426.65
3	12868	21	426.65
3	13042	21.1	426.65
3	13140	21.2	426.65
3	13377	21.3	426.65
3	13414	21.4	426.65
3	13486	21.5	426.65
3	13692	21.6	426.65
3	13923	21.7	426.65
3	13960	21.8	426.65
3	13997	21.9	426.65
3	14144	22	426.65
3	14318	22.1	426.65
3	14416	22.2	426.65
3	14653	22.3	426.65
3	14690	22.4	426.65
3	14762	22.5	426.65
3	14968	22.6	426.65
3	15199	22.7	426.65
3	15236	22.8	426.65
3	15273	22.9	426.65
3	15420	23	426.65
3	15596	23.1	426.65
3	15696	23.2	426.65
3	15933	23.3	426.65
3	15970	23.4	426.65
3	16046	23.5	426.65
3	16254	23.6	426.65
3	16491	23.7	426.65
3	16528	23.8	426.65
3	16565	23.9	426.65
3	16716	24	426.65
3	16892	24.1	426.65
3	17059	24.2	426.65
3	17443	24.3	426.65
3	17492	24.4	426.65
3	17590	24.5	426.65
3	17864	24.6	426.65
3	18327	24.7	426.65
3	18376	24.8	426.65
3	18425	24.9	426.65
3	18620	25	426.65
3	18970	25.1	426.65
3	19143	25.2	426.65
3	19531	25.3	426.65
3	19580	25.4	426.65
3	19682	25.5	426.65
3	19958	25.6	426.65
3	20421	25.7	426.65
3	20470	25.8	426.65
3	20519	25.9	426.65
3	20714	26	426.65
3	21064	26.1	426.65
3	21237	26.2	426.65
3	21627	26.3	426.65
3	21676	26.4	426.65
3	21778	26.5	426.65
3	22056	26.6	426.65
3	22525	26.7	426.65
3	22574	26.8	426.65
3	22623	26.9	426.65
3	22822	27	426.65
3	23174	27.1	426.65
3	23347	27.2	426.65
3	23743	27.3	426.65
3	23792	27.4	426.65
3	23898	27.5	426.65
3	24178	27.6	426.65
3	24651	27.7	426.65
3	24700	27.8	426.65
3	24749	27.9	426.65
3	24948	28	426.65
3	25300	28.1	426.65
3	25473	28.2	426.65
3	25869	28.3	426.65
3	25918	28.4	426.65
3	26032	28.5	426.65
3	26312	28.6	426.65
3	26805	28.7	426.65
3	26854	28.8	426.65
3	26903	28.9	426.65
3	27106	29	426.65
3	27466	29.1	426.65
3	27639	29.2	426.65
3	28039	29.3	426.65
3	28088	29.4	426.65
3	28204	29.5	426.65
3	28488	29.6	426.65
3	28981	29.7	426.65
3	29030	29.8	426.65
3	29079	29.9	426.65
3	29282	30	426.65
3	29648	30.1	426.65
3	29823	30.2	426.65
3	30227	30.3	426.65
3	30276	30.4	426.65
3	30392	30.5	426.65
3	30676	30.6	426.65
3	31171	30.7	426.65
3	31220	30.8	426.65
3	31269	30.9	426.65
3	31472	31	426.65
3	31842	31.1	426.65
3	32017	31.2	426.65
3	32429	31.3	426.65
3	32478	31.4	426.65
3	32594	31.5	426.65
3	32880	31.6	426.65
3	33377	31.7	426.65
3	33426	31.8	426.65
3	33475	31.9	426.65
3	33682	32	426.65
3	34052	32.1	426.65
3	34261	32.2	426.65
3	34767	32.3	426.65
3	34972	32.4	426.65
3	35120	32.5	426.65
3	35525	32.6	426.65
3	36237	32.7	426.65
3	36298	32.8	426.65
3	36359	32.9	426.65
3	36796	33	426.65
3	37264	33.1	426.65
3	37479	33.2	426.65
3	37997	33.3	426.65
3	38202	33.4	426.65
3	38350	33.5	426.65
3	38761	33.6	426.65
3	39485	33.7	426.65
3	39546	33.8	426.65
3	39607	33.9	426.65
3	40044	34	426.65
3	40524	34.1	426.65
3	40743	34.2	426.65
3	41261	34.3	426.65
3	41468	34.4	426.65
3	41616	34.5	426.65
3	42029	34.6	426.65
3	42755	34.7	426.65
3	42816	34.8	426.65
3	42877	34.9	426.65
3	43322	35	426.65
3	43912	35.1	426.65
3	44175	35.2	426.65
3	44733	35.3	426.65
3	44952	35.4	426.65
3	45116	35.5	426.65
3	45581	35.6	426.65
3	46419	35.7	426.65
3	46480	35.8	426.65
3	46541	35.9	426.65
3	46990	36	426.65
3	47496	36.1	426.65
3	47743	36.2	426.65
3	48281	36.3	426.65
3	48488	36.4	426.65
3	48642	36.5	426.65
3	49055	36.6	426.65
3	49803	36.7	426.65
3	49864	36.8	426.65
3	49925	36.9	426.65
3	50374	37	426.65
3	50884	37.1	426.65
3	51109	37.2	426.65
3	51647	37.3	426.65
3	51856	37.4	426.65
3	52010	37.5	426.65
3	52425	37.6	426.65
3	53177	37.7	426.65
3	53238	37.8	426.65
3	53299	37.9	426.65
3	53748	38	426.65
3	54256	38.1	426.65
3	54487	38.2	426.65
3	55029	38.3	426.65
3	55238	38.4	426.65
3	55392	38.5	426.65
3	55805	38.6	426.65
3	56545	38.7	426.65
3	56606	38.8	426.65
3	56667	38.9	426.65
3	57120	39	426.65
3	57632	39.1	426.65
3	57867	39.2	426.65
3	58411	39.3	426.65
3	58620	39.4	426.65
3	58774	39.5	426.65
3	59189	39.6	426.65
3	59929	39.7	426.65
3	59990	39.8	426.65
3	60051	39.9	426.65
3	60506	40	426.65
3	61024	40.1	426.65
3	61293	40.2	426.65
3	61998	40.3	426.65
3	62358	40.4	426.65
3	62544	40.5	426.65
3	63041	40.6	426.65
3	63921	40.7	426.65
3	64107	40.8	426.65
3	64243	40.9	426.65
3	65000	41	426.65
3	65622	41.1	426.65
3	65907	41.2	426.65
3	66620	41.3	426.65
3	66986	41.4	426.65
3	67172	41.5	426.65
3	67673	41.6	426.65
3	68571	41.7	426.65
3	68757	41.8	426.65
3	68899	41.9	426.65
3	69656	42	426.65
3	70284	42.1	426.65
3	70569	42.2	426.65
3	71290	42.3	426.65
3	71658	42.4	426.65
3	71852	42.5	426.65
3	72353	42.6	426.65
3	73255	42.7	426.65
3	73443	42.8	426.65
3	73585	42.9	426.65
3	74350	43	426.65
3	75040	43.1	426.65
3	75349	43.2	426.65
3	76198	43.3	426.65
3	76584	43.4	426.65
3	76826	43.5	426.65
3	77387	43.6	426.65
3	78421	43.7	426.65
3	78613	43.8	426.65
3	78763	43.9	426.65
3	79540	44	426.65
3	80206	44.1	426.65
3	80499	44.2	426.65
3	81236	44.3	426.65
3	81606	44.4	426.65
3	81800	44.5	426.65
3	82307	44.6	426.65
3	83225	44.7	426.65
3	83415	44.8	426.65
3	83557	44.9	426.65
3	84330	45	426.65
3	84980	45.1	426.65
3	85279	45.2	426.65
3	86016	45.3	426.65
3	86398	45.4	426.65
3	86598	45.5	426.65
3	87113	45.6	426.65
3	88025	45.7	426.65
3	88215	45.8	426.65
3	88357	45.9	426.65
3	89134	46	426.65
3	89784	46.1	426.65
3	90083	46.2	426.65
3	90816	46.3	426.65
3	91206	46.4	426.65
3	91398	46.5	426.65
3	91919	46.6	426.65
3	92829	46.7	426.65
3	93019	46.8	426.65
3	93161	46.9	426.65
3	93938	47	426.65
3	94592	47.1	426.65
3	94893	47.2	426.65
3	95628	47.3	426.65
3	96024	47.4	426.65
3	96216	47.5	426.65
3	96741	47.6	426.65
3	97655	47.7	426.65
3	97845	47.8	426.65
3	97993	47.9	426.65
3	98774	48	426.65
3	99428	48.1	426.65
3	99977	48.2	426.65
3	100820	48.3	426.65
2	2	0.1	30.1
2	28	0.2	30.1
2	41	0.3	30.11
2	54	0.4	30.13
2	67	0.5	30.16
2	99	0.6	30.2
2	144	0.7	30.25
2	157	0.8	30.31
2	170	0.9	30.38
2	183	1	30.46
2	228	1.1	30.55
2	260	1.2	30.65
2	273	1.3	30.76
2	286	1.4	30.88
2	299	1.5	31.01
2	331	1.6	31.15
2	376	1.7	31.3
2	389	1.8	31.46
2	402	1.9	31.63
2	415	2	31.81
2	460	2.1	32
2	492	2.2	32.2
2	505	2.3	32.41
2	518	2.4	32.63
2	531	2.5	32.86
2	563	2.6	33.1
2	608	2.7	33.35
2	621	2.8	33.61
2	634	2.9	33.88
2	647	3	34.16
2	692	3.1	34.45
2	724	3.2	34.75
2	737	3.3	35.06
2	750	3.4	35.38
2	763	3.5	35.71
2	795	3.6	36.05
2	840	3.7	36.4
2	853	3.8	36.76
2	866	3.9	37.13
2	879	4	37.51
2	924	4.1	37.9
2	956	4.2	38.3
2	969	4.3	38.71
2	982	4.4	39.13
2	995	4.5	39.56
2	1027	4.6	40
2	1072	4.7	40.45
2	1085	4.8	40.91
2	1098	4.9	41.38
2	1111	5	41.86
2	1156	5.1	42.35
2	1188	5.2	42.85
2	1201	5.3	43.36
2	1214	5.4	43.88
2	1227	5.5	44.41
2	1259	5.6	44.95
2	1304	5.7	45.5
2	1317	5.8	46.06
2	1330	5.9	46.63
2	1343	6	47.21
2	1388	6.1	47.8
2	1420	6.2	48.4
2	1433	6.3	49.01
2	1446	6.4	49.63
2	1459	6.5	50.26
2	1491	6.6	50.9
2	1536	6.7	51.55
2	1549	6.8	52.21
2	1562	6.9	52.88
2	1575	7	53.56
2	1620	7.1	54.25
2	1652	7.2	54.95
2	1665	7.3	55.66
2	1678	7.4	56.38
2	1691	7.5	57.11
2	1723	7.6	57.85
2	1768	7.7	58.6
2	1781	7.8	59.36
2	1794	7.9	60.13
2	1807	8	60.91
2	1852	8.1	61.7
2	1906	8.2	62.5
2	2001	8.3	63.31
2	2026	8.4	64.13
2	2076	8.5	64.96
2	2169	8.6	65.8
2	2310	8.7	66.65
2	2335	8.8	67.51
2	2360	8.9	68.38
2	2385	9	69.26
2	2468	9.1	70.15
2	2528	9.2	71.05
2	2623	9.3	71.96
2	2648	9.4	72.88
2	2698	9.5	73.81
2	2791	9.6	74.75
2	2932	9.7	75.7
2	2957	9.8	76.66
2	2982	9.9	77.63
2	3007	10	78.61
2	3090	10.1	79.6
2	3150	10.2	80.6
2	3245	10.3	81.61
2	3270	10.4	82.63
2	3320	10.5	83.66
2	3413	10.6	84.7
2	3554	10.7	85.75
2	3579	10.8	86.81
2	3604	10.9	87.88
2	3629	11	88.96
2	3712	11.1	90.05
2	3772	11.2	91.15
2	3867	11.3	92.26
2	3892	11.4	93.38
2	3942	11.5	94.51
2	4035	11.6	95.65
2	4176	11.7	96.8
2	4201	11.8	97.96
2	4226	11.9	99.13
2	4251	12	100.31
2	4334	12.1	101.5
2	4394	12.2	102.7
2	4489	12.3	103.91
2	4514	12.4	105.13
2	4564	12.5	106.36
2	4659	12.6	107.6
2	4800	12.7	108.85
2	4825	12.8	110.11
2	4850	12.9	111.38
2	4875	13	112.66
2	4960	13.1	113.95
2	5022	13.2	115.25
2	5117	13.3	116.56
2	5142	13.4	117.88
2	5192	13.5	119.21
2	5287	13.6	120.55
2	5430	13.7	121.9
2	5455	13.8	123.26
2	5480	13.9	124.63
2	5505	14	126.01
2	5590	14.1	127.4
2	5652	14.2	128.79
2	5747	14.3	130.18
2	5772	14.4	131.57
2	5822	14.5	132.96
2	5917	14.6	134.35
2	6060	14.7	135.74
2	6085	14.8	137.13
2	6110	14.9	138.52
2	6135	15	139.91
2	6220	15.1	141.3
2	6282	15.2	142.69
2	6377	15.3	144.08
2	6402	15.4	145.47
2	6452	15.5	146.86
2	6547	15.6	148.25
2	6690	15.7	149.64
2	6715	15.8	151.03
2	6740	15.9	152.42
2	6765	16	153.81
2	6852	16.1	155.2
2	6940	16.2	156.59
2	7165	16.3	157.98
2	7202	16.4	159.37
2	7274	16.5	160.76
2	7470	16.6	162.15
2	7687	16.7	163.54
2	7724	16.8	164.93
2	7761	16.9	166.32
2	7900	17	167.71
2	8064	17.1	169.1
2	8160	17.2	170.49
2	8385	17.3	171.88
2	8422	17.4	173.27
2	8494	17.5	174.66
2	8690	17.6	176.05
2	8907	17.7	177.44
2	8944	17.8	178.83
2	8981	17.9	180.22
2	9120	18	181.61
2	9286	18.1	183
2	9382	18.2	184.39
2	9607	18.3	185.78
2	9644	18.4	187.17
2	9716	18.5	188.56
2	9916	18.6	189.95
2	10135	18.7	191.34
2	10172	18.8	192.73
2	10209	18.9	194.12
2	10352	19	195.51
2	10522	19.1	196.9
2	10620	19.2	198.29
2	10851	19.3	199.68
2	10888	19.4	201.07
2	10960	19.5	202.46
2	11162	19.6	203.85
2	11387	19.7	205.24
2	11424	19.8	206.63
2	11461	19.9	208.02
2	11604	20	209.41
2	11774	20.1	210.8
2	11872	20.2	212.19
2	12103	20.3	213.58
2	12140	20.4	214.97
2	12212	20.5	216.36
2	12416	20.6	217.75
2	12647	20.7	219.14
2	12684	20.8	220.53
2	12721	20.9	221.92
2	12868	21	223.31
2	13042	21.1	224.7
2	13140	21.2	226.09
2	13377	21.3	227.48
2	13414	21.4	228.87
2	13486	21.5	230.26
2	13692	21.6	231.65
2	13923	21.7	233.04
2	13960	21.8	234.43
2	13997	21.9	235.82
2	14144	22	237.21
2	14318	22.1	238.6
2	14416	22.2	239.99
2	14653	22.3	241.38
2	14690	22.4	242.77
2	14762	22.5	244.16
2	14968	22.6	245.55
2	15199	22.7	246.94
2	15236	22.8	248.33
2	15273	22.9	249.72
2	15420	23	251.11
2	15596	23.1	252.5
2	15696	23.2	253.89
2	15933	23.3	255.28
2	15970	23.4	256.67
2	16046	23.5	258.06
2	16254	23.6	259.45
2	16491	23.7	260.84
2	16528	23.8	262.23
2	16565	23.9	263.62
2	16716	24	265.01
2	16892	24.1	266.4
2	17059	24.2	267.79
2	17443	24.3	269.18
2	17492	24.4	270.57
2	17590	24.5	271.96
2	17864	24.6	273.35
2	18327	24.7	274.74
2	18376	24.8	276.13
2	18425	24.9	277.52
2	18620	25	278.91
2	18970	25.1	280.3
2	19143	25.2	281.69
2	19531	25.3	283.08
2	19580	25.4	284.47
2	19682	25.5	285.86
2	19958	25.6	287.25
2	20421	25.7	288.64
2	20470	25.8	290.03
2	20519	25.9	291.42
2	20714	26	292.81
2	21064	26.1	294.2
2	21237	26.2	295.59
2	21627	26.3	296.98
2	21676	26.4	298.37
2	21778	26.5	299.76
2	22056	26.6	301.15
2	22525	26.7	302.54
2	22574	26.8	303.93
2	22623	26.9	305.32
2	22822	27	306.71
2	23174	27.1	308.1
2	23347	27.2	309.49
2	23743	27.3	310.88
2	23792	27.4	312.27
2	23898	27.5	313.66
2	24178	27.6	315.05
2	24651	27.7	316.44
2	24700	27.8	317.83
2	24749	27.9	319.22
2	24948	28	320.61
2	25300	28.1	322
2	25473	28.2	323.39
2	25869	28.3	324.78
2	25918	28.4	326.17
2	26032	28.5	327.56
2	26312	28.6	328.95
2	26805	28.7	330.34
2	26854	28.8	331.73
2	26903	28.9	333.12
2	27106	29	334.51
2	27466	29.1	335.9
2	27639	29.2	337.29
2	28039	29.3	338.68
2	28088	29.4	340.07
2	28204	29.5	341.46
2	28488	29.6	342.85
2	28981	29.7	344.24
2	29030	29.8	345.63
2	29079	29.9	347.02
2	29282	30	348.41
2	29648	30.1	349.8
2	29823	30.2	351.19
2	30227	30.3	352.58
2	30276	30.4	353.97
2	30392	30.5	355.36
2	30676	30.6	356.75
2	31171	30.7	358.14
2	31220	30.8	359.53
2	31269	30.9	360.92
2	31472	31	362.31
2	31842	31.1	363.7
2	32017	31.2	365.09
2	32429	31.3	366.48
2	32478	31.4	367.87
2	32594	31.5	369.26
2	32880	31.6	370.65
2	33377	31.7	372.04
2	33426	31.8	373.43
2	33475	31.9	374.82
2	33682	32	376.21
2	34052	32.1	377.6
2	34261	32.2	378.99
2	34767	32.3	380.38
2	34972	32.4	381.77
2	35120	32.5	383.16
2	35525	32.6	384.55
2	36237	32.7	385.94
2	36298	32.8	387.33
2	36359	32.9	388.72
2	36796	33	390.11
2	37264	33.1	391.5
2	37479	33.2	392.89
2	37997	33.3	394.28
2	38202	33.4	395.67
2	38350	33.5	397.06
2	38761	33.6	398.45
2	39485	33.7	399.84
2	39546	33.8	401.23
2	39607	33.9	402.62
2	40044	34	404.01
2	40524	34.1	405.4
2	40743	34.2	406.79
2	41261	34.3	408.18
2	41468	34.4	409.57
2	41616	34.5	410.96
2	42029	34.6	412.35
2	42755	34.7	413.74
2	42816	34.8	415.13
2	42877	34.9	416.52
2	43322	35	417.91
2	43912	35.1	419.3
2	44175	35.2	420.69
2	44733	35.3	421.99
2	44952	35.4	423.2
2	45116	35.5	424.32
2	45581	35.6	425.35
2	46419	35.7	426.29
2	46480	35.8	427.14
2	46541	35.9	427.9
2	46990	36	428.67
2	47496	36.1	429.45
2	47743	36.2	430.24
2	48281	36.3	431.04
2	48488	36.4	431.85
2	48642	36.5	432.67
2	49055	36.6	433.5
2	49803	36.7	434.34
2	49864	36.8	435.19
2	49925	36.9	436.05
2	50374	37	436.92
2	50884	37.1	437.8
2	51109	37.2	438.69
2	51647	37.3	439.59
2	51856	37.4	440.5
2	52010	37.5	441.42
2	52425	37.6	442.35
2	53177	37.7	443.29
2	53238	37.8	444.24
2	53299	37.9	445.2
2	53748	38	446.17
2	54256	38.1	447.15
2	54487	38.2	448.14
2	55029	38.3	449.14
2	55238	38.4	450.15
2	55392	38.5	451.17
2	55805	38.6	452.2
2	56545	38.7	453.24
2	56606	38.8	454.29
2	56667	38.9	455.35
2	57120	39	456.42
2	57632	39.1	457.5
2	57867	39.2	458.59
2	58411	39.3	459.69
2	58620	39.4	460.8
2	58774	39.5	461.92
2	59189	39.6	463.05
2	59929	39.7	464.19
2	59990	39.8	465.34
2	60051	39.9	466.5
2	60506	40	467.67
2	61024	40.1	468.85
2	61293	40.2	470.04
2	61998	40.3	471.24
2	62358	40.4	472.45
2	62544	40.5	473.67
2	63041	40.6	474.9
2	63921	40.7	476.14
2	64107	40.8	477.39
2	64243	40.9	478.65
2	65000	41	479.92
2	65622	41.1	481.2
2	65907	41.2	482.49
2	66620	41.3	483.79
2	66986	41.4	485.1
2	67172	41.5	486.42
2	67673	41.6	487.75
2	68571	41.7	489.09
2	68757	41.8	490.44
2	68899	41.9	491.8
2	69656	42	493.17
2	70284	42.1	494.55
2	70569	42.2	495.94
2	71290	42.3	497.33
2	71658	42.4	498.72
2	71852	42.5	500.11
2	72353	42.6	501.5
2	73255	42.7	502.89
2	73443	42.8	504.28
2	73585	42.9	505.67
2	74350	43	507.06
2	75040	43.1	508.45
2	75349	43.2	509.84
2	76198	43.3	511.23
2	76584	43.4	512.62
2	76826	43.5	514.01
2	77387	43.6	515.4
2	78421	43.7	516.79
2	78613	43.8	518.18
2	78763	43.9	519.57
2	79540	44	520.96
2	80206	44.1	522.35
2	80499	44.2	523.74
2	81236	44.3	525.13
2	81606	44.4	526.52
2	81800	44.5	527.91
2	82307	44.6	529.3
2	83225	44.7	530.69
2	83415	44.8	532.08
2	83557	44.9	533.47
2	84330	45	534.86
2	84980	45.1	536.25
2	85279	45.2	537.64
2	86016	45.3	539.03
2	86398	45.4	540.42
2	86598	45.5	541.81
2	87113	45.6	543.2
2	88025	45.7	544.59
2	88215	45.8	545.98
2	88357	45.9	547.37
2	89134	46	548.76
2	89784	46.1	550.15
2	90083	46.2	551.54
2	90816	46.3	552.93
2	91206	46.4	554.32
2	91398	46.5	555.71
2	91919	46.6	557.1
2	92829	46.7	558.49
2	93019	46.8	559.88
2	93161	46.9	561.27
2	93938	47	562.66
2	94592	47.1	564.05
2	94893	47.2	565.44
2	95628	47.3	566.83
2	96024	47.4	568.22
2	96216	47.5	569.61
2	96741	47.6	571
2	97655	47.7	572.39
2	97845	47.8	573.78
2	97993	47.9	575.17
2	98774	48	576.56
2	99428	48.1	577.95
2	99977	48.2	579.34
2	100820	48.3	580.73
48	2001	8.3	1.167848739031
48	2026	8.4	1.1967744942298
48	2076	8.5	1.2257019122483
48	2169	8.6	1.25463154736
48	2310	8.7	1.2835639538381
48	2335	8.8	1.3124996859558
48	2360	8.9	1.3414392979866
48	2385	9	1.3703833442035
48	2468	9.1	1.39933237888
48	2528	9.2	1.4282869562893
48	2623	9.3	1.4572476307046
48	2648	9.4	1.4862149563994
48	2698	9.5	1.5151894876467
48	2791	9.6	1.54417177872
48	2932	9.7	1.5731623838925
48	2957	9.8	1.6021618574374
48	2982	9.9	1.6311707536282
48	3007	10	1.6601896267379
48	3090	10.1	1.68921903104
48	3150	10.2	1.7182595208077
48	3245	10.3	1.7473116503142
48	3270	10.4	1.776375973833
48	3320	10.5	1.8054530456371
48	3413	10.6	1.83454342
48	3554	10.7	1.8636476511949
48	3579	10.8	1.892766293495
48	3604	10.9	1.9218999011738
48	3629	11	1.9510490285043
48	3712	11.1	1.98021422976
48	3772	11.2	2.0093960592141
48	3867	11.3	2.0385950711398
48	3892	11.4	2.0678118198106
48	3942	11.5	2.0970468594995
48	4035	11.6	2.12630074448
48	4176	11.7	2.1555740290253
48	4201	11.8	2.1848672674086
48	4226	11.9	2.2141810139034
48	4251	12	2.2435158227827
48	4334	12.1	2.27287224832
48	4394	12.2	2.3022508447885
48	4489	12.3	2.3316521664614
48	4514	12.4	2.3610767676122
48	4564	12.5	2.3905252025139
48	4659	12.6	2.41999802544
48	4800	12.7	2.4494957906637
48	4825	12.8	2.4790190524582
48	4850	12.9	2.508568365097
48	4875	13	2.5381442828531
48	4960	13.1	2.56774736
48	5022	13.2	2.5973781508109
48	5117	13.3	2.627037209559
48	5142	13.4	2.6567250905178
48	5192	13.5	2.6864423479603
48	5287	13.6	2.71618953616
48	5430	13.7	2.7459672093901
48	5455	13.8	2.7757759219238
48	5480	13.9	2.8056162280346
48	5505	14	2.8354886819955
48	5590	14.1	2.86539383808
48	5652	14.2	2.8953322505613
48	5747	14.3	2.9253044737126
48	5772	14.4	2.9553110618074
48	5822	14.5	2.9853525691187
48	5917	14.6	3.01542954992
48	6060	14.7	3.0455425584845
48	6085	14.8	3.0756921490854
48	6110	14.9	3.1058788759962
48	6135	15	3.1361032934899
48	6220	15.1	3.16636595584
48	6282	15.2	3.1966674173197
48	6377	15.3	3.2270082322022
48	6402	15.4	3.257388954761
48	6452	15.5	3.2878101392691
48	6547	15.6	3.31827234
48	6690	15.7	3.3487761112269
48	6715	15.8	3.379322007223
48	6740	15.9	3.4099105822617
48	6765	16	3.4405423906163
48	6852	16.1	3.47121798656
48	6940	16.2	3.5019379243661
48	7165	16.3	3.5327027583078
48	7202	16.4	3.5635130426585
48	7274	16.5	3.5943693316915
48	7470	16.6	3.62527217968
48	7687	16.7	3.6562221408973
48	7724	16.8	3.6872197696166
48	7761	16.9	3.7182656201113
48	7900	17	3.7493602466547
48	8064	17.1	3.78050420352
48	8160	17.2	3.8116980449805
48	8385	17.3	3.8429423253094
48	8422	17.4	3.8742375987801
48	8494	17.5	3.9055844196659
48	8690	17.6	3.93698334224
48	8907	17.7	3.9684349207757
48	8944	17.8	3.9999397095462
48	8981	17.9	4.0314982628249
48	9120	18	4.0631111348851
48	9286	18.1	4.09477888
48	9382	18.2	4.1265020524429
48	9607	18.3	4.158281206487
48	9644	18.4	4.1901168964057
48	9716	18.5	4.2220096764723
48	9916	18.6	4.25396010096
48	10135	18.7	4.2859687241421
48	10172	18.8	4.3180361002918
48	10209	18.9	4.3501627836825
48	10352	19	4.3823493285875
48	10522	19.1	4.41459628928
48	10620	19.2	4.4469042200333
48	10851	19.3	4.4792736751206
48	10888	19.4	4.5117052088153
48	10960	19.5	4.5441993753907
48	11162	19.6	4.57675672912
48	11387	19.7	4.6093778242765
48	11424	19.8	4.6420632151334
48	11461	19.9	4.6748134559641
48	11604	20	4.7076291010419
48	11774	20.1	4.74051070464
48	11872	20.2	4.7734588210317
48	12103	20.3	4.8064740044902
48	12140	20.4	4.8395568092889
48	12212	20.5	4.8727077897011
48	12416	20.6	4.9059275
48	12647	20.7	4.9392164944589
48	12684	20.8	4.972575327351
48	12721	20.9	5.0060045529497
48	12868	21	5.0395047255283
48	13042	21.1	5.07307639936
48	13140	21.2	5.1067201287181
48	13377	21.3	5.1404364678758
48	13414	21.4	5.1742259711065
48	13486	21.5	5.2080891926835
48	13692	21.6	5.24202668688
48	13923	21.7	5.2760390079693
48	13960	21.8	5.3101267102246
48	13997	21.9	5.3442903479193
48	14144	22	5.3785304753267
48	14318	22.1	2.0286304753279
48	14416	22.2	2.0286304753267
48	14653	22.3	2.0286304753267
48	14690	22.4	2.0286304753267
48	14762	22.5	2.0286304753267
48	14968	22.6	2.0286304753267
48	15199	22.7	2.0286304753267
48	15236	22.8	2.0286304753267
48	15273	22.9	2.0286304753267
48	15420	23	2.0286304753267
48	15596	23.1	2.0286304753267
48	15696	23.2	2.0286304753267
48	15933	23.3	2.0286304753267
48	15970	23.4	2.0286304753267
48	16046	23.5	2.0286304753267
48	16254	23.6	2.0286304753267
48	16491	23.7	2.0286304753267
48	16528	23.8	2.0286304753267
48	16565	23.9	2.0286304753267
48	16716	24	2.0286304753267
48	16892	24.1	2.0286304753267
48	17059	24.2	2.0286304753267
48	17443	24.3	2.0286304753267
48	17492	24.4	2.0286304753267
48	17590	24.5	2.0286304753267
48	17864	24.6	2.0286304753267
48	18327	24.7	2.0286304753267
48	18376	24.8	2.0286304753267
48	18425	24.9	2.0286304753267
48	18620	25	2.0286304753267
48	18970	25.1	2.0286304753267
48	19143	25.2	2.0286304753267
48	19531	25.3	2.0286304753267
48	19580	25.4	2.0286304753267
48	19682	25.5	2.0286304753267
48	19958	25.6	2.0286304753267
48	20421	25.7	2.0286304753267
48	20470	25.8	2.0286304753267
48	20519	25.9	2.0286304753267
48	20714	26	2.0286304753267
48	21064	26.1	2.0286304753267
48	21237	26.2	2.0286304753267
48	21627	26.3	2.0286304753267
48	21676	26.4	2.0286304753267
48	21778	26.5	2.0286304753267
48	22056	26.6	2.0286304753267
48	22525	26.7	2.0286304753267
48	22574	26.8	2.0286304753267
48	22623	26.9	2.0286304753267
48	22822	27	2.0286304753267
48	23174	27.1	2.0286304753267
48	23347	27.2	2.0286304753267
48	23743	27.3	2.0286304753267
48	23792	27.4	2.0286304753267
48	23898	27.5	2.0286304753267
48	24178	27.6	2.0286304753267
48	24651	27.7	2.0286304753267
48	24700	27.8	2.0286304753267
48	24749	27.9	2.0286304753267
48	24948	28	2.0286304753267
48	25300	28.1	2.0286304753267
48	25473	28.2	2.0286304753267
48	25869	28.3	2.0286304753267
48	25918	28.4	2.0286304753267
48	26032	28.5	2.0286304753267
48	26312	28.6	2.0286304753267
48	26805	28.7	2.0286304753267
48	26854	28.8	2.0286304753267
48	26903	28.9	2.0286304753267
48	27106	29	2.0286304753267
48	27466	29.1	2.0286304753267
48	27639	29.2	2.0286304753267
48	28039	29.3	2.0286304753267
48	28088	29.4	2.0286304753267
48	28204	29.5	2.0286304753267
48	28488	29.6	2.0286304753267
48	28981	29.7	2.0286304753267
48	29030	29.8	2.0286304753267
48	29079	29.9	2.0286304753267
48	29282	30	2.0286304753267
48	29648	30.1	2.0286304753267
48	29823	30.2	2.0286304753267
48	30227	30.3	2.0286304753267
48	30276	30.4	2.0286304753267
48	30392	30.5	2.0286304753267
48	30676	30.6	2.0286304753267
48	31171	30.7	2.0286304753267
48	31220	30.8	2.0286304753267
48	31269	30.9	2.0286304753267
48	31472	31	2.0286304753267
48	31842	31.1	2.0286304753267
48	32017	31.2	2.0286304753267
48	32429	31.3	2.0286304753267
48	32478	31.4	2.0286304753267
48	32594	31.5	2.0286304753267
48	32880	31.6	2.0286304753267
48	33377	31.7	2.0286304753267
48	33426	31.8	2.0286304753267
48	33475	31.9	2.0286304753267
48	33682	32	2.0286304753267
48	34052	32.1	2.0286304753267
48	34261	32.2	2.0286304753267
48	34767	32.3	2.0286304753267
48	34972	32.4	2.0286304753267
48	35120	32.5	2.0286304753267
48	35525	32.6	2.0286304753267
48	36237	32.7	2.0286304753267
48	36298	32.8	2.0286304753267
48	36359	32.9	2.0286304753267
48	36796	33	2.0286304753267
48	37264	33.1	2.0286304753267
48	37479	33.2	2.0286304753267
48	37997	33.3	2.0286304753267
48	38202	33.4	2.0286304753267
48	38350	33.5	2.0286304753267
48	38761	33.6	2.0286304753267
48	39485	33.7	2.0286304753267
48	39546	33.8	2.0286304753267
48	39607	33.9	2.0286304753267
48	40044	34	2.0286304753267
48	40524	34.1	2.0286304753267
48	40743	34.2	2.0286304753267
48	41261	34.3	2.0286304753267
48	41468	34.4	2.0286304753267
48	41616	34.5	2.0286304753267
48	42029	34.6	2.0286304753267
48	42755	34.7	2.0286304753267
48	42816	34.8	2.0286304753267
48	42877	34.9	2.0286304753267
48	43322	35	2.0286304753267
48	43912	35.1	2.0286304753267
48	44175	35.2	2.0286304753267
48	44733	35.3	2.0286304753267
48	44952	35.4	2.0286304753267
48	45116	35.5	2.0286304753267
48	45581	35.6	2.0286304753267
48	46419	35.7	2.0286304753267
48	46480	35.8	2.0286304753267
48	46541	35.9	2.0286304753267
48	46990	36	2.0286304753267
48	47496	36.1	2.0286304753267
48	47743	36.2	2.0286304753267
48	48281	36.3	2.0286304753267
48	48488	36.4	2.0286304753267
48	48642	36.5	2.0286304753267
48	49055	36.6	2.0286304753267
48	49803	36.7	2.0286304753267
48	49864	36.8	2.0286304753267
48	49925	36.9	2.0286304753267
48	50374	37	2.0286304753267
48	50884	37.1	2.0286304753267
48	51109	37.2	2.0286304753267
48	51647	37.3	2.0286304753267
48	51856	37.4	2.0286304753267
48	52010	37.5	2.0286304753267
48	52425	37.6	2.0286304753267
48	53177	37.7	2.0286304753267
48	53238	37.8	2.0286304753267
48	53299	37.9	2.0286304753267
48	53748	38	2.0286304753267
48	54256	38.1	2.0286304753267
48	54487	38.2	2.0286304753267
48	55029	38.3	2.0286304753267
48	55238	38.4	2.0286304753267
48	55392	38.5	2.0286304753267
48	55805	38.6	2.0286304753267
48	56545	38.7	2.0286304753267
48	56606	38.8	2.0286304753267
48	56667	38.9	2.0286304753267
48	57120	39	2.0286304753267
48	57632	39.1	2.0286304753267
48	57867	39.2	2.0286304753267
48	58411	39.3	2.0286304753267
48	58620	39.4	2.0286304753267
48	58774	39.5	2.0286304753267
48	59189	39.6	2.0286304753267
48	59929	39.7	2.0286304753267
48	59990	39.8	2.0286304753267
48	60051	39.9	2.0286304753267
48	60506	40	2.0286304753267
48	61024	40.1	2.0286304753267
48	61293	40.2	2.0286304753267
48	61998	40.3	2.0286304753267
48	62358	40.4	2.0286304753267
48	62544	40.5	2.0286304753267
48	63041	40.6	2.0286304753267
48	63921	40.7	2.0286304753267
48	64107	40.8	2.0286304753267
48	64243	40.9	2.0286304753267
48	65000	41	2.0286304753267
48	65622	41.1	2.0286304753267
48	65907	41.2	2.0286304753267
48	66620	41.3	2.0286304753267
48	66986	41.4	2.0286304753267
48	67172	41.5	2.0286304753267
48	67673	41.6	2.0286304753267
48	68571	41.7	2.0286304753267
48	68757	41.8	2.0286304753267
48	68899	41.9	2.0286304753267
48	69656	42	2.0286304753267
48	70284	42.1	2.0286304753267
48	70569	42.2	2.0286304753267
48	71290	42.3	2.0286304753267
48	71658	42.4	2.0286304753267
48	71852	42.5	2.0286304753267
48	72353	42.6	2.0286304753267
48	73255	42.7	2.0286304753267
48	73443	42.8	2.0286304753267
48	73585	42.9	2.0286304753267
48	74350	43	2.0286304753267
48	75040	43.1	2.0286304753267
48	75349	43.2	0.973
48	76198	43.3	0.973
48	76584	43.4	0.973
48	76826	43.5	0.973
48	77387	43.6	0.973
48	78421	43.7	0.973
48	78613	43.8	0.973
48	78763	43.9	3.379322007223
48	79540	44	3.4099105822618
48	80206	44.1	3.4405423906163
48	80499	44.2	3.47121798656
48	81236	44.3	3.5019379243661
48	81606	44.4	3.5327027583078
48	81800	44.5	3.5635130426586
48	82307	44.6	3.5943693316915
48	83225	44.7	3.62527217968
48	83415	44.8	3.6562221408973
48	83557	44.9	3.6872197696166
48	84330	45	3.7182656201114
48	84980	45.1	3.7493602466547
48	85279	45.2	3.78050420352
48	86016	45.3	3.8116980449805
48	86398	45.4	3.8429423253094
48	86598	45.5	3.8742375987801
48	87113	45.6	3.9055844196659
48	88025	45.7	3.93698334224
48	88215	45.8	3.9684349207757
48	88357	45.9	3.9999397095462
48	89134	46	4.0314982628249
48	89784	46.1	4.0631111348851
48	90083	46.2	4.09477888
48	90816	46.3	4.1265020524429
48	91206	46.4	4.158281206487
48	91398	46.5	4.1901168964057
48	91919	46.6	4.2220096764723
48	92829	46.7	4.25396010096
48	93019	46.8	4.2859687241421
48	93161	46.9	4.3180361002918
48	93938	47	4.3501627836825
48	94592	47.1	4.3823493285875
48	94893	47.2	4.41459628928
48	95628	47.3	4.4469042200333
48	96024	47.4	4.4792736751206
48	96216	47.5	4.5117052088153
48	96741	47.6	4.5441993753907
48	97655	47.7	4.57675672912
48	97845	47.8	4.6093778242765
48	97993	47.9	4.6420632151334
48	98774	48	4.6748134559641
48	99428	48.1	4.7076291010419
48	99977	48.2	4.74051070464
48	100820	48.3	4.7734588210317
47	2001	8.3	1
47	2026	8.4	1
47	2076	8.5	1
47	2169	8.6	1
47	2310	8.7	1
47	2335	8.8	1
47	2360	8.9	1
47	2385	9	1
47	2468	9.1	1
47	2528	9.2	1
47	2623	9.3	1
47	2648	9.4	1
47	2698	9.5	1
47	2791	9.6	1
47	2932	9.7	1
47	2957	9.8	1
47	2982	9.9	1
47	3007	10	1
47	3090	10.1	1
47	3150	10.2	1
47	3245	10.3	1
47	3270	10.4	1
47	3320	10.5	1
47	3413	10.6	1
47	3554	10.7	1
47	3579	10.8	1
47	3604	10.9	1
47	3629	11	1
47	3712	11.1	1
47	3772	11.2	1
47	3867	11.3	1
47	3892	11.4	1
47	3942	11.5	1
47	4035	11.6	1
47	4176	11.7	1
47	4201	11.8	1
47	4226	11.9	1
47	4251	12	1
47	4334	12.1	1
47	4394	12.2	1
47	4489	12.3	1
47	4514	12.4	1
47	4564	12.5	1
47	4659	12.6	1
47	4800	12.7	1
47	4825	12.8	1
47	4850	12.9	1
47	4875	13	1
47	4960	13.1	1
47	5022	13.2	1
47	5117	13.3	1
47	5142	13.4	1
47	5192	13.5	1
47	5287	13.6	1
47	5430	13.7	1
47	5455	13.8	1
47	5480	13.9	1
47	5505	14	1
47	5590	14.1	1
47	5652	14.2	1
47	5747	14.3	1
47	5772	14.4	1
47	5822	14.5	1
47	5917	14.6	1
47	6060	14.7	1
47	6085	14.8	1
47	6110	14.9	1
47	6135	15	1
47	6220	15.1	1
47	6282	15.2	1
47	6377	15.3	1
47	6402	15.4	1
47	6452	15.5	1
47	6547	15.6	1
47	6690	15.7	1
47	6715	15.8	1
47	6740	15.9	1
47	6765	16	1
47	6852	16.1	1
47	6940	16.2	1
47	7165	16.3	1
47	7202	16.4	1
47	7274	16.5	1
47	7470	16.6	1
47	7687	16.7	1
47	7724	16.8	1
47	7761	16.9	1
47	7900	17	1
47	8064	17.1	1
47	8160	17.2	1
47	8385	17.3	1
47	8422	17.4	1
47	8494	17.5	1
47	8690	17.6	1
47	8907	17.7	1
47	8944	17.8	1
47	8981	17.9	1
47	9120	18	1
47	9286	18.1	1
47	9382	18.2	1
47	9607	18.3	1
47	9644	18.4	1
47	9716	18.5	1
47	9916	18.6	1
47	10135	18.7	1
47	10172	18.8	1
47	10209	18.9	1
47	10352	19	1
47	10522	19.1	1
47	10620	19.2	1
47	10851	19.3	1
47	10888	19.4	1
47	10960	19.5	1
47	11162	19.6	1
47	11387	19.7	1
47	11424	19.8	1
47	11461	19.9	1
47	11604	20	1
47	11774	20.1	1
47	11872	20.2	1
47	12103	20.3	1
47	12140	20.4	1
47	12212	20.5	1
47	12416	20.6	1
47	12647	20.7	1
47	12684	20.8	1
47	12721	20.9	1
47	12868	21	1
47	13042	21.1	1
47	13140	21.2	1
47	13377	21.3	1
47	13414	21.4	1
47	13486	21.5	1
47	13692	21.6	1
47	13923	21.7	1
47	13960	21.8	1
47	13997	21.9	1
47	14144	22	1
47	14318	22.1	3.3750779948605e-13
47	14416	22.2	0
47	14653	22.3	0
47	14690	22.4	0
47	14762	22.5	0
47	14968	22.6	0
47	15199	22.7	0
47	15236	22.8	0
47	15273	22.9	0
47	15420	23	0
47	15596	23.1	0
47	15696	23.2	0
47	15933	23.3	0
47	15970	23.4	0
47	16046	23.5	0
47	16254	23.6	0
47	16491	23.7	0
47	16528	23.8	0
47	16565	23.9	0
47	16716	24	0
47	16892	24.1	0
47	17059	24.2	0
47	17443	24.3	0
47	17492	24.4	0
47	17590	24.5	0
47	17864	24.6	0
47	18327	24.7	0
47	18376	24.8	0
47	18425	24.9	0
47	18620	25	0
47	18970	25.1	0
47	19143	25.2	0
47	19531	25.3	0
47	19580	25.4	0
47	19682	25.5	0
47	19958	25.6	0
47	20421	25.7	0
47	20470	25.8	0
47	20519	25.9	0
47	20714	26	0
47	21064	26.1	0
47	21237	26.2	0
47	21627	26.3	0
47	21676	26.4	0
47	21778	26.5	0
47	22056	26.6	0
47	22525	26.7	0
47	22574	26.8	0
47	22623	26.9	0
47	22822	27	0
47	23174	27.1	0
47	23347	27.2	0
47	23743	27.3	0
47	23792	27.4	0
47	23898	27.5	0
47	24178	27.6	0
47	24651	27.7	0
47	24700	27.8	0
47	24749	27.9	0
47	24948	28	0
47	25300	28.1	0
47	25473	28.2	0
47	25869	28.3	0
47	25918	28.4	0
47	26032	28.5	0
47	26312	28.6	0
47	26805	28.7	0
47	26854	28.8	0
47	26903	28.9	0
47	27106	29	0
47	27466	29.1	0
47	27639	29.2	0
47	28039	29.3	0
47	28088	29.4	0
47	28204	29.5	0
47	28488	29.6	0
47	28981	29.7	0
47	29030	29.8	0
47	29079	29.9	0
47	29282	30	0
47	29648	30.1	0
47	29823	30.2	0
47	30227	30.3	0
47	30276	30.4	0
47	30392	30.5	0
47	30676	30.6	0
47	31171	30.7	0
47	31220	30.8	0
47	31269	30.9	0
47	31472	31	0
47	31842	31.1	0
47	32017	31.2	0
47	32429	31.3	0
47	32478	31.4	0
47	32594	31.5	0
47	32880	31.6	0
47	33377	31.7	0
47	33426	31.8	0
47	33475	31.9	0
47	33682	32	0
47	34052	32.1	0
47	34261	32.2	0
47	34767	32.3	0
47	34972	32.4	0
47	35120	32.5	0
47	35525	32.6	0
47	36237	32.7	0
47	36298	32.8	0
47	36359	32.9	0
47	36796	33	0
47	37264	33.1	0
47	37479	33.2	0
47	37997	33.3	0
47	38202	33.4	0
47	38350	33.5	0
47	38761	33.6	0
47	39485	33.7	0
47	39546	33.8	0
47	39607	33.9	0
47	40044	34	0
47	40524	34.1	0
47	40743	34.2	0
47	41261	34.3	0
47	41468	34.4	0
47	41616	34.5	0
47	42029	34.6	0
47	42755	34.7	0
47	42816	34.8	0
47	42877	34.9	0
47	43322	35	0
47	43912	35.1	0
47	44175	35.2	0
47	44733	35.3	0
47	44952	35.4	0
47	45116	35.5	0
47	45581	35.6	0
47	46419	35.7	0
47	46480	35.8	0
47	46541	35.9	0
47	46990	36	0
47	47496	36.1	0
47	47743	36.2	0
47	48281	36.3	0
47	48488	36.4	0
47	48642	36.5	0
47	49055	36.6	0
47	49803	36.7	0
47	49864	36.8	0
47	49925	36.9	0
47	50374	37	0
[...]
208	81800	44.5	1
208	82307	44.6	1
208	83225	44.7	1
208	83415	44.8	1
208	83557	44.9	1
208	84330	45	1
208	84980	45.1	1
208	85279	45.2	1
208	86016	45.3	1
208	86398	45.4	1
208	86598	45.5	1
208	87113	45.6	1
208	88025	45.7	1
208	88215	45.8	1
208	88357	45.9	1
208	89134	46	1
208	89784	46.1	3.3750779948605e-13
208	90083	46.2	0
208	90816	46.3	0
208	91206	46.4	0
208	91398	46.5	0
208	91919	46.6	0
208	92829	46.7	0
208	93019	46.8	0
208	93161	46.9	0
208	93938	47	0
208	94592	47.1	0
208	94893	47.2	0
208	95628	47.3	0
208	96024	47.4	0
208	96216	47.5	0
208	96741	47.6	0
208	97655	47.7	0
208	97845	47.8	0
208	97993	47.9	0
208	98774	48	0
208	99428	48.1	0
208	99977	48.2	0
208	100820	48.3	0
207	34261	32.2	0.1
207	34767	32.3	0.2
207	34972	32.4	0.3
207	35120	32.5	0.4
207	35525	32.6	0.5
207	36237	32.7	0.6
207	36298	32.8	0.7
207	36359	32.9	0.8
207	36796	33	0.9
207	37264	33.1	1
207	37479	33.2	1.1
207	37997	33.3	1.2
207	38202	33.4	1.3
207	38350	33.5	1.4
207	38761	33.6	1.5
207	39485	33.7	1.6
207	39546	33.8	1.7
207	39607	33.9	1.8
207	40044	34	1.9
207	40524	34.1	2
207	40743	34.2	2.1
207	41261	34.3	2.2
207	41468	34.4	2.3
207	41616	34.5	2.4
207	42029	34.6	2.5
207	42755	34.7	2.6
207	42816	34.8	2.7
207	42877	34.9	2.8
207	43322	35	2.9
207	43912	35.1	3
207	44175	35.2	3.1
207	44733	35.3	3.2
207	44952	35.4	3.3
207	45116	35.5	3.4
207	45581	35.6	3.5
207	46419	35.7	3.6
207	46480	35.8	3.7
207	46541	35.9	3.8
207	46990	36	3.9
207	47496	36.1	4
207	47743	36.2	4.1
207	48281	36.3	4.2
207	48488	36.4	4.3
207	48642	36.5	4.4
207	49055	36.6	4.5
207	49803	36.7	4.6
207	49864	36.8	4.7
207	49925	36.9	4.8
207	50374	37	4.9
207	50884	37.1	5
207	51109	37.2	5.1
207	51647	37.3	5.2
207	51856	37.4	5.3
207	52010	37.5	5.4
207	52425	37.6	5.5
207	53177	37.7	5.6
207	53238	37.8	5.7
207	53299	37.9	5.8
207	53748	38	5.9
207	54256	38.1	6
207	54487	38.2	6.1
207	55029	38.3	6.2
207	55238	38.4	6.3
207	55392	38.5	6.4
207	55805	38.6	6.5
207	56545	38.7	6.6
207	56606	38.8	6.7
207	56667	38.9	6.8
207	57120	39	6.9
207	57632	39.1	7
207	57867	39.2	7.1
207	58411	39.3	7.2
207	58620	39.4	7.3
207	58774	39.5	7.4
207	59189	39.6	7.5
207	59929	39.7	7.6
207	59990	39.8	7.7
207	60051	39.9	7.8
207	60506	40	7.9
207	61024	40.1	8
207	61293	40.2	8.1
207	61998	40.3	8.2
207	62358	40.4	8.3
207	62544	40.5	8.4
207	63041	40.6	8.5
207	63921	40.7	8.6
207	64107	40.8	8.7
207	64243	40.9	8.8
207	65000	41	8.9
207	65622	41.1	9
207	65907	41.2	9.1
207	66620	41.3	9.2
207	66986	41.4	9.3
207	67172	41.5	9.4
207	67673	41.6	9.5
207	68571	41.7	9.6
207	68757	41.8	9.7
207	68899	41.9	9.8
207	69656	42	9.9
207	70284	42.1	10
207	70569	42.2	10.1
207	71290	42.3	10.2
207	71658	42.4	10.3
207	71852	42.5	10.4
207	72353	42.6	10.5
207	73255	42.7	10.6
207	73443	42.8	10.7
207	73585	42.9	10.8
207	74350	43	10.9
207	75040	43.1	11
207	75349	43.2	11.1
207	76198	43.3	11.2
207	76584	43.4	11.3
207	76826	43.5	11.4
207	77387	43.6	11.5
207	78421	43.7	11.6
207	78613	43.8	11.7
207	78763	43.9	11.8
207	79540	44	11.9
207	80206	44.1	12
207	80499	44.2	12.1
207	81236	44.3	12.2
207	81606	44.4	12.3
207	81800	44.5	12.4
207	82307	44.6	12.5
207	83225	44.7	12.6
207	83415	44.8	12.7
207	83557	44.9	12.8
207	84330	45	12.9
207	84980	45.1	13
207	85279	45.2	13.1
207	86016	45.3	13.2
207	86398	45.4	13.3
207	86598	45.5	13.4
207	87113	45.6	13.5
207	88025	45.7	13.6
207	88215	45.8	13.7
207	88357	45.9	13.8
207	89134	46	13.9
207	89784	46.1	13.9
207	90083	46.2	13.9
207	90816	46.3	13.9
207	91206	46.4	13.9
207	91398	46.5	13.9
207	91919	46.6	13.9
207	92829	46.7	13.9
207	93019	46.8	13.9
207	93161	46.9	13.9
207	93938	47	13.9
207	94592	47.1	13.9
207	94893	47.2	13.9
207	95628	47.3	13.9
207	96024	47.4	13.9
207	96216	47.5	13.9
207	96741	47.6	13.9
207	97655	47.7	13.9
207	97845	47.8	13.9
207	97993	47.9	13.9
207	98774	48	13.9
207	99428	48.1	13.9
207	99977	48.2	13.9
207	100820	48.3	13.9
206	34052	32.1	819.9
206	34261	32.2	819.9
206	34767	32.3	819.89
206	34972	32.4	819.87
206	35120	32.5	819.84
206	35525	32.6	819.8
206	36237	32.7	819.75
206	36298	32.8	819.69
206	36359	32.9	819.62
206	36796	33	819.54
206	37264	33.1	819.45
206	37479	33.2	819.35
206	37997	33.3	819.24
206	38202	33.4	819.12
206	38350	33.5	818.99
206	38761	33.6	818.85
206	39485	33.7	818.7
206	39546	33.8	818.54
206	39607	33.9	818.37
206	40044	34	818.19
206	40524	34.1	818
206	40743	34.2	817.8
206	41261	34.3	817.59
206	41468	34.4	817.37
206	41616	34.5	817.14
206	42029	34.6	816.9
206	42755	34.7	816.65
206	42816	34.8	816.39
206	42877	34.9	816.12
206	43322	35	815.84
206	43912	35.1	815.55
206	44175	35.2	815.25
206	44733	35.3	814.94
206	44952	35.4	814.62
206	45116	35.5	814.29
206	45581	35.6	813.95
206	46419	35.7	813.6
206	46480	35.8	813.24
206	46541	35.9	812.87
206	46990	36	812.49
206	47496	36.1	812.1
206	47743	36.2	811.7
206	48281	36.3	811.29
206	48488	36.4	810.87
206	48642	36.5	810.44
206	49055	36.6	810
206	49803	36.7	809.55
206	49864	36.8	809.09
206	49925	36.9	808.62
206	50374	37	808.14
206	50884	37.1	807.65
206	51109	37.2	807.15
206	51647	37.3	806.64
206	51856	37.4	806.12
206	52010	37.5	805.59
206	52425	37.6	805.05
206	53177	37.7	804.5
206	53238	37.8	803.94
206	53299	37.9	803.37
206	53748	38	802.79
206	54256	38.1	802.2
206	54487	38.2	801.6
206	55029	38.3	800.99
206	55238	38.4	800.37
206	55392	38.5	799.74
206	55805	38.6	799.1
206	56545	38.7	798.45
206	56606	38.8	797.79
206	56667	38.9	797.12
206	57120	39	796.44
206	57632	39.1	795.75
206	57867	39.2	795.05
206	58411	39.3	794.34
206	58620	39.4	793.62
206	58774	39.5	792.89
206	59189	39.6	792.15
206	59929	39.7	791.4
206	59990	39.8	790.64
206	60051	39.9	789.87
206	60506	40	789.09
206	61024	40.1	788.3
206	61293	40.2	787.5
206	61998	40.3	786.69
206	62358	40.4	785.87
206	62544	40.5	785.04
206	63041	40.6	784.2
206	63921	40.7	783.35
206	64107	40.8	782.49
206	64243	40.9	781.62
206	65000	41	780.74
206	65622	41.1	779.85
206	65907	41.2	778.95
206	66620	41.3	778.04
206	66986	41.4	777.12
206	67172	41.5	776.19
206	67673	41.6	775.25
206	68571	41.7	774.3
206	68757	41.8	773.34
206	68899	41.9	772.37
206	69656	42	771.39
206	70284	42.1	770.4
206	70569	42.2	769.4
206	71290	42.3	768.39
206	71658	42.4	767.37
206	71852	42.5	766.34
206	72353	42.6	765.3
206	73255	42.7	764.25
206	73443	42.8	763.19
206	73585	42.9	762.12
206	74350	43	761.04
206	75040	43.1	759.95
206	75349	43.2	758.85
206	76198	43.3	757.74
206	76584	43.4	756.62
206	76826	43.5	755.49
206	77387	43.6	754.35
206	78421	43.7	753.2
206	78613	43.8	752.04
206	78763	43.9	750.87
206	79540	44	749.69
206	80206	44.1	748.5
206	80499	44.2	747.3
206	81236	44.3	746.09
206	81606	44.4	744.87
206	81800	44.5	743.64
206	82307	44.6	742.4
206	83225	44.7	741.15
206	83415	44.8	739.89
206	83557	44.9	738.62
206	84330	45	737.34
206	84980	45.1	736.05
206	85279	45.2	734.75
206	86016	45.3	733.44
206	86398	45.4	732.12
206	86598	45.5	730.79
206	87113	45.6	729.45
206	88025	45.7	728.1
206	88215	45.8	726.74
206	88357	45.9	725.37
206	89134	46	723.99
206	89784	46.1	722.6
206	90083	46.2	721.21
206	90816	46.3	719.82
206	91206	46.4	718.43
206	91398	46.5	717.04
206	91919	46.6	715.65
206	92829	46.7	714.26
206	93019	46.8	712.87
206	93161	46.9	711.48
206	93938	47	710.09
206	94592	47.1	708.7
206	94893	47.2	707.31
206	95628	47.3	705.92
206	96024	47.4	704.53
206	96216	47.5	703.14
206	96741	47.6	701.75
206	97655	47.7	700.36
206	97845	47.8	698.97
206	97993	47.9	697.58
206	98774	48	696.19
206	99428	48.1	694.8
206	99977	48.2	693.41
206	100820	48.3	692.02
205	34052	32.1	426.65
205	34261	32.2	426.65
205	34767	32.3	426.65
205	34972	32.4	426.65
205	35120	32.5	426.65
205	35525	32.6	426.65
205	36237	32.7	426.65
205	36298	32.8	426.65
205	36359	32.9	426.65
205	36796	33	426.65
205	37264	33.1	426.65
205	37479	33.2	426.65
205	37997	33.3	426.65
205	38202	33.4	426.65
205	38350	33.5	426.65
205	38761	33.6	426.65
205	39485	33.7	426.65
205	39546	33.8	426.65
205	39607	33.9	426.65
205	40044	34	426.65
205	40524	34.1	426.65
205	40743	34.2	426.65
205	41261	34.3	426.65
205	41468	34.4	426.65
205	41616	34.5	426.65
205	42029	34.6	426.65
205	42755	34.7	426.65
205	42816	34.8	426.65
205	42877	34.9	426.65
205	43322	35	426.65
205	43912	35.1	426.65
205	44175	35.2	426.65
205	44733	35.3	426.65
205	44952	35.4	426.65
205	45116	35.5	426.65
205	45581	35.6	426.65
205	46419	35.7	426.65
205	46480	35.8	426.65
205	46541	35.9	426.65
205	46990	36	426.65
205	47496	36.1	426.65
205	47743	36.2	426.65
205	48281	36.3	426.65
205	48488	36.4	426.65
205	48642	36.5	426.65
205	49055	36.6	426.65
205	49803	36.7	426.65
205	49864	36.8	426.65
205	49925	36.9	426.65
205	50374	37	426.65
205	50884	37.1	426.65
205	51109	37.2	426.65
205	51647	37.3	426.65
205	51856	37.4	426.65
205	52010	37.5	426.65
205	52425	37.6	426.65
205	53177	37.7	426.65
205	53238	37.8	426.65
205	53299	37.9	426.65
205	53748	38	426.65
205	54256	38.1	426.65
205	54487	38.2	426.65
205	55029	38.3	426.65
205	55238	38.4	426.65
205	55392	38.5	426.65
205	55805	38.6	426.65
205	56545	38.7	426.65
205	56606	38.8	426.65
205	56667	38.9	426.65
205	57120	39	426.65
205	57632	39.1	426.65
205	57867	39.2	426.65
205	58411	39.3	426.65
205	58620	39.4	426.65
205	58774	39.5	426.65
205	59189	39.6	426.65
205	59929	39.7	426.65
205	59990	39.8	426.65
205	60051	39.9	426.65
205	60506	40	426.65
205	61024	40.1	426.65
205	61293	40.2	426.65
205	61998	40.3	426.65
205	62358	40.4	426.65
205	62544	40.5	426.65
205	63041	40.6	426.65
205	63921	40.7	426.65
205	64107	40.8	426.65
205	64243	40.9	426.65
205	65000	41	426.65
205	65622	41.1	426.65
205	65907	41.2	426.65
205	66620	41.3	426.65
205	66986	41.4	426.65
205	67172	41.5	426.65
205	67673	41.6	426.65
205	68571	41.7	426.65
205	68757	41.8	426.65
205	68899	41.9	426.65
205	69656	42	426.65
205	70284	42.1	426.65
205	70569	42.2	426.65
205	71290	42.3	426.65
205	71658	42.4	426.65
205	71852	42.5	426.65
205	72353	42.6	426.65
205	73255	42.7	426.65
205	73443	42.8	426.65
205	73585	42.9	426.65
205	74350	43	426.65
205	75040	43.1	426.65
205	75349	43.2	426.65
205	76198	43.3	426.65
205	76584	43.4	426.65
205	76826	43.5	426.65
205	77387	43.6	426.65
205	78421	43.7	426.65
205	78613	43.8	426.65
205	78763	43.9	426.65
205	79540	44	426.65
205	80206	44.1	426.65
205	80499	44.2	426.65
205	81236	44.3	426.65
205	81606	44.4	426.65
205	81800	44.5	426.65
205	82307	44.6	426.65
205	83225	44.7	426.65
205	83415	44.8	426.65
205	83557	44.9	426.65
205	84330	45	426.65
205	84980	45.1	426.65
205	85279	45.2	426.65
205	86016	45.3	426.65
205	86398	45.4	426.65
205	86598	45.5	426.65
205	87113	45.6	426.65
205	88025	45.7	426.65
205	88215	45.8	426.65
205	88357	45.9	426.65
205	89134	46	426.65
205	89784	46.1	426.65
205	90083	46.2	426.65
205	90816	46.3	426.65
205	91206	46.4	426.65
205	91398	46.5	426.65
205	91919	46.6	426.65
205	92829	46.7	426.65
205	93019	46.8	426.65
205	93161	46.9	426.65
205	93938	47	426.65
205	94592	47.1	426.65
205	94893	47.2	426.65
205	95628	47.3	426.65
205	96024	47.4	426.65
205	96216	47.5	426.65
205	96741	47.6	426.65
205	97655	47.7	426.65
205	97845	47.8	426.65
205	97993	47.9	426.65
205	98774	48	426.65
205	99428	48.1	426.65
205	99977	48.2	426.65
205	100820	48.3	426.65
251	61998	40.3	1.167848739031
251	62358	40.4	1.1967744942298
251	62544	40.5	1.2257019122483
251	63041	40.6	1.25463154736
251	63921	40.7	1.2835639538381
251	64107	40.8	1.3124996859558
251	64243	40.9	1.3414392979866
251	65000	41	1.3703833442035
251	65622	41.1	1.39933237888
251	65907	41.2	1.4282869562893
251	66620	41.3	1.4572476307046
251	66986	41.4	1.4862149563994
251	67172	41.5	1.5151894876467
251	67673	41.6	1.54417177872
251	68571	41.7	1.5731623838925
251	68757	41.8	1.6021618574374
251	68899	41.9	1.6311707536282
251	69656	42	1.6601896267379
251	70284	42.1	1.68921903104
251	70569	42.2	1.7182595208077
251	71290	42.3	1.7473116503142
251	71658	42.4	1.776375973833
251	71852	42.5	1.8054530456371
251	72353	42.6	1.83454342
251	73255	42.7	1.8636476511949
251	73443	42.8	1.892766293495
251	73585	42.9	1.9218999011738
251	74350	43	1.9510490285043
251	75040	43.1	1.98021422976
251	75349	43.2	2.0093960592141
251	76198	43.3	2.0385950711398
251	76584	43.4	2.0678118198106
251	76826	43.5	2.0970468594995
251	77387	43.6	2.12630074448
251	78421	43.7	2.1555740290253
251	78613	43.8	2.1848672674086
251	78763	43.9	2.2141810139034
251	79540	44	2.2435158227827
251	80206	44.1	2.27287224832
251	80499	44.2	2.3022508447885
251	81236	44.3	2.3316521664614
251	81606	44.4	2.3610767676122
251	81800	44.5	2.3905252025139
251	82307	44.6	2.41999802544
251	83225	44.7	2.4494957906637
251	83415	44.8	2.4790190524582
251	83557	44.9	2.508568365097
251	84330	45	2.5381442828531
251	84980	45.1	2.56774736
251	85279	45.2	2.5973781508109
251	86016	45.3	2.627037209559
251	86398	45.4	2.6567250905178
251	86598	45.5	2.6864423479603
251	87113	45.6	2.71618953616
251	88025	45.7	2.7459672093901
251	88215	45.8	2.7757759219238
251	88357	45.9	2.8056162280346
251	89134	46	2.8354886819955
251	89784	46.1	2.86539383808
251	90083	46.2	2.8953322505613
251	90816	46.3	2.9253044737126
251	91206	46.4	2.9553110618074
251	91398	46.5	2.9853525691187
251	91919	46.6	3.01542954992
251	92829	46.7	3.0455425584845
251	93019	46.8	3.0756921490854
251	93161	46.9	3.1058788759962
251	93938	47	3.1361032934899
251	94592	47.1	3.16636595584
251	94893	47.2	3.1966674173197
251	95628	47.3	3.2270082322022
251	96024	47.4	3.257388954761
251	96216	47.5	3.2878101392691
251	96741	47.6	3.31827234
251	97655	47.7	3.3487761112269
251	97845	47.8	3.379322007223
251	97993	47.9	3.4099105822617
251	98774	48	3.4405423906163
251	99428	48.1	3.47121798656
251	99977	48.2	3.5019379243661
251	100820	48.3	3.5327027583078
250	61998	40.3	1
250	62358	40.4	1
250	62544	40.5	1
250	63041	40.6	1
250	63921	40.7	1
250	64107	40.8	1
250	64243	40.9	1
250	65000	41	1
250	65622	41.1	1
250	65907	41.2	1
250	66620	41.3	1
250	66986	41.4	1
250	67172	41.5	1
250	67673	41.6	1
250	68571	41.7	1
250	68757	41.8	1
250	68899	41.9	1
250	69656	42	1
250	70284	42.1	1
250	70569	42.2	1
250	71290	42.3	1
250	71658	42.4	1
250	71852	42.5	1
250	72353	42.6	1
250	73255	42.7	1
250	73443	42.8	1
250	73585	42.9	1
250	74350	43	1
250	75040	43.1	1
250	75349	43.2	1
250	76198	43.3	1
250	76584	43.4	1
250	76826	43.5	1
250	77387	43.6	1
250	78421	43.7	1
250	78613	43.8	1
250	78763	43.9	1
250	79540	44	1
250	80206	44.1	1
250	80499	44.2	1
250	81236	44.3	1
250	81606	44.4	1
250	81800	44.5	1
250	82307	44.6	1
250	83225	44.7	1
250	83415	44.8	1
250	83557	44.9	1
250	84330	45	1
250	84980	45.1	1
250	85279	45.2	1
250	86016	45.3	1
250	86398	45.4	1
250	86598	45.5	1
250	87113	45.6	1
250	88025	45.7	1
250	88215	45.8	1
250	88357	45.9	1
250	89134	46	1
250	89784	46.1	1
250	90083	46.2	1
250	90816	46.3	1
250	91206	46.4	1
250	91398	46.5	1
250	91919	46.6	1
250	92829	46.7	1
250	93019	46.8	1
250	93161	46.9	1
250	93938	47	1
250	94592	47.1	1
250	94893	47.2	1
250	95628	47.3	1
250	96024	47.4	1
250	96216	47.5	1
250	96741	47.6	1
250	97655	47.7	1
250	97845	47.8	1
250	97993	47.9	1
250	98774	48	1
250	99428	48.1	1
250	99977	48.2	1
250	100820	48.3	1
249	61293	40.2	0.1
249	61998	40.3	0.2
249	62358	40.4	0.3
249	62544	40.5	0.4
249	63041	40.6	0.5
249	63921	40.7	0.6
249	64107	40.8	0.7
249	64243	40.9	0.8
249	65000	41	0.9
249	65622	41.1	1
249	65907	41.2	1.1
249	66620	41.3	1.2
249	66986	41.4	1.3
249	67172	41.5	1.4
249	67673	41.6	1.5
249	68571	41.7	1.6
249	68757	41.8	1.7
249	68899	41.9	1.8
249	69656	42	1.9
249	70284	42.1	2
249	70569	42.2	2.1
249	71290	42.3	2.2
249	71658	42.4	2.3
249	71852	42.5	2.4
249	72353	42.6	2.5
249	73255	42.7	2.6
249	73443	42.8	2.7
249	73585	42.9	2.8
249	74350	43	2.9
249	75040	43.1	3
249	75349	43.2	3.1
249	76198	43.3	3.2
249	76584	43.4	3.3
249	76826	43.5	3.4
249	77387	43.6	3.5
249	78421	43.7	3.6
249	78613	43.8	3.7
249	78763	43.9	3.8
249	79540	44	3.9
249	80206	44.1	4
249	80499	44.2	4.1
249	81236	44.3	4.2
249	81606	44.4	4.3
249	81800	44.5	4.4
249	82307	44.6	4.5
249	83225	44.7	4.6
249	83415	44.8	4.7
249	83557	44.9	4.8
249	84330	45	4.9
249	84980	45.1	5
249	85279	45.2	5.1
249	86016	45.3	5.2
249	86398	45.4	5.3
249	86598	45.5	5.4
249	87113	45.6	5.5
249	88025	45.7	5.6
249	88215	45.8	5.7
249	88357	45.9	5.8
249	89134	46	5.9
249	89784	46.1	6
249	90083	46.2	6.1
249	90816	46.3	6.2
249	91206	46.4	6.3
249	91398	46.5	6.4
249	91919	46.6	6.5
249	92829	46.7	6.6
249	93019	46.8	6.7
249	93161	46.9	6.8
249	93938	47	6.9
249	94592	47.1	7
249	94893	47.2	7.1
249	95628	47.3	7.2
249	96024	47.4	7.3
249	96216	47.5	7.4
249	96741	47.6	7.5
249	97655	47.7	7.6
249	97845	47.8	7.7
249	97993	47.9	7.8
249	98774	48	7.9
249	99428	48.1	8
249	99977	48.2	8.1
249	100820	48.3	8.2
248	61024	40.1	819.9
248	61293	40.2	819.9
248	61998	40.3	819.89
248	62358	40.4	819.87
248	62544	40.5	819.84
248	63041	40.6	819.8
248	63921	40.7	819.75
248	64107	40.8	819.69
248	64243	40.9	819.62
248	65000	41	819.54
248	65622	41.1	819.45
248	65907	41.2	819.35
248	66620	41.3	819.24
248	66986	41.4	819.12
248	67172	41.5	818.99
248	67673	41.6	818.85
248	68571	41.7	818.7
248	68757	41.8	818.54
248	68899	41.9	818.37
248	69656	42	818.19
248	70284	42.1	818
248	70569	42.2	817.8
248	71290	42.3	817.59
248	71658	42.4	817.37
248	71852	42.5	817.14
248	72353	42.6	816.9
248	73255	42.7	816.65
248	73443	42.8	816.39
248	73585	42.9	816.12
248	74350	43	815.84
248	75040	43.1	815.55
248	75349	43.2	815.25
248	76198	43.3	814.94
248	76584	43.4	814.62
248	76826	43.5	814.29
248	77387	43.6	813.95
248	78421	43.7	813.6
248	78613	43.8	813.24
248	78763	43.9	812.87
248	79540	44	812.49
248	80206	44.1	812.1
248	80499	44.2	811.7
248	81236	44.3	811.29
248	81606	44.4	810.87
248	81800	44.5	810.44
248	82307	44.6	810
248	83225	44.7	809.55
248	83415	44.8	809.09
248	83557	44.9	808.62
248	84330	45	808.14
248	84980	45.1	807.65
248	85279	45.2	807.15
248	86016	45.3	806.64
248	86398	45.4	806.12
248	86598	45.5	805.59
248	87113	45.6	805.05
248	88025	45.7	804.5
248	88215	45.8	803.94
248	88357	45.9	803.37
248	89134	46	802.79
248	89784	46.1	802.2
248	90083	46.2	801.6
248	90816	46.3	800.99
248	91206	46.4	800.37
248	91398	46.5	799.74
248	91919	46.6	799.1
248	92829	46.7	798.45
248	93019	46.8	797.79
248	93161	46.9	797.12
248	93938	47	796.44
248	94592	47.1	795.75
248	94893	47.2	795.05
248	95628	47.3	794.34
248	96024	47.4	793.62
248	96216	47.5	792.89
248	96741	47.6	792.15
248	97655	47.7	791.4
248	97845	47.8	790.64
248	97993	47.9	789.87
248	98774	48	789.09
248	99428	48.1	788.3
248	99977	48.2	787.5
248	100820	48.3	786.69
247	61024	40.1	426.65
247	61293	40.2	426.65
247	61998	40.3	426.65
247	62358	40.4	426.65
247	62544	40.5	426.65
247	63041	40.6	426.65
247	63921	40.7	426.65
247	64107	40.8	426.65
247	64243	40.9	426.65
247	65000	41	426.65
247	65622	41.1	426.65
247	65907	41.2	426.65
247	66620	41.3	426.65
247	66986	41.4	426.65
247	67172	41.5	426.65
247	67673	41.6	426.65
247	68571	41.7	426.65
247	68757	41.8	426.65
247	68899	41.9	426.65
247	69656	42	426.65
247	70284	42.1	426.65
247	70569	42.2	426.65
247	71290	42.3	426.65
247	71658	42.4	426.65
247	71852	42.5	426.65
247	72353	42.6	426.65
247	73255	42.7	426.65
247	73443	42.8	426.65
247	73585	42.9	426.65
247	74350	43	426.65
247	75040	43.1	426.65
247	75349	43.2	426.65
247	76198	43.3	426.65
247	76584	43.4	426.65
247	76826	43.5	426.65
247	77387	43.6	426.65
247	78421	43.7	426.65
247	78613	43.8	426.65
247	78763	43.9	426.65
247	79540	44	426.65
247	80206	44.1	426.65
247	80499	44.2	426.65
247	81236	44.3	426.65
247	81606	44.4	426.65
247	81800	44.5	426.65
247	82307	44.6	426.65
247	83225	44.7	426.65
247	83415	44.8	426.65
247	83557	44.9	426.65
247	84330	45	426.65
247	84980	45.1	426.65
247	85279	45.2	426.65
247	86016	45.3	426.65
247	86398	45.4	426.65
247	86598	45.5	426.65
247	87113	45.6	426.65
247	88025	45.7	426.65
247	88215	45.8	426.65
247	88357	45.9	426.65
247	89134	46	426.65
247	89784	46.1	426.65
247	90083	46.2	426.65
247	90816	46.3	426.65
247	91206	46.4	426.65
247	91398	46.5	426.65
247	91919	46.6	426.65
247	92829	46.7	426.65
247	93019	46.8	426.65
247	93161	46.9	426.65
247	93938	47	426.65
247	94592	47.1	426.65
247	94893	47.2	426.65
247	95628	47.3	426.65
247	96024	47.4	426.65
247	96216	47.5	426.65
247	96741	47.6	426.65
247	97655	47.7	426.65
247	97845	47.8	426.65
247	97993	47.9	426.65
247	98774	48	426.65
247	99428	48.1	426.65
247	99977	48.2	426.65
247	100820	48.3	426.65
293	100820	48.3	1.167848739031
292	100820	48.3	1
291	99977	48.2	0.1
291	100820	48.3	0.2
290	99428	48.1	819.9
290	99977	48.2	819.9
290	100820	48.3	819.89
289	99428	48.1	426.65
289	99977	48.2	426.65
289	100820	48.3	426.65
